21
Coordinates from ORCA-job grain_mol_opt.QMRegion
  H   1.84333289480475     -0.22970228865995     -7.44445284240708
  O   1.58452757462655      0.26193715507833     -8.26489598670830
  H   2.11267701579602     -0.14824508861378     -8.95796046561545
  H   5.00208553382024     -1.17872414752653     -9.39128499247237
  O   4.14355195031922     -0.69719699871706     -9.45092285775249
  H   4.38948326058784      0.22565860074061     -9.63935252815446
  H   0.75001717266569      3.01189474291842     -7.06584890651708
  O   1.68936595369930      2.73350194561419     -7.17705948151160
  H   1.66756412092286      1.94462489681488     -7.76458904178176
  H   3.39205380938573      2.94964871388456     -6.54383903396758
  O   4.26176906385466      2.64145162885557     -6.22926973641574
  H   4.06715077306561      2.35028385794466     -5.30673436783742
  H   4.52872944753520     -0.21848625865975     -7.69325131344692
  O   4.83435412172617      0.01736348888900     -6.80286877305990
  H   4.54274059571271      0.93537137370910     -6.65066461864331
  C   4.11905575263513      3.19101945845125    -10.01982837154372
  O   4.68937694109951      2.09053566430884     -9.31581402489811
  H   3.97080886095911      2.87161441432288    -11.04702383685469
  H   4.80922536678736      2.34524648432643     -8.39116140269959
  H   3.15594021793675      3.48357345685080     -9.59898752615679
  H   4.78859183783942      4.05278975040957    -10.02062818979833
