30
Coordinates from ORCA-job grain_mol_opt.QMRegion
  H   4.31200342709944      5.48476136818771      0.29440366536820
  O   4.73840012229350      5.60384543424603      1.16538175902206
  H   4.05731383148262      6.09457022637447      1.66501026277553
  H   4.13952388323392      4.48686478762333      6.42288598729195
  O   4.21986514912714      5.19176853659322      5.77137645824836
  H   3.63053201780665      4.92473532285079      5.01923353493995
  H   2.66589334990420      3.50358395521849      3.89227128348465
  O   2.59262214446338      4.46221576815900      3.76906663557596
  H   2.49264472051336      4.59957746005261      2.79847636096612
  H   5.43976229807090      3.52599953792510      3.50181398474846
  O   6.13062140913366      3.82656459121098      4.12595449051762
  H   5.63882189802356      4.40955110582902      4.72389164395557
  H   2.71179918952257      6.51298322406311      6.27822272979960
  O   1.74867175502743      6.56540384486062      6.24381756202578
  H   1.47986910352667      5.62161587035280      6.16278482316959
  H   4.87259020561503      8.51261048736227     -0.04592931867206
  O   5.25797821108516      8.51841214800112      0.85498109220866
  H   5.58375250620486      7.61063131658004      0.94654711444406
  H   0.35215244296117      8.66860484563730      4.17151544916819
  O   1.04621765284670      8.03285403428623      3.95189531045723
  H   1.21276971670696      7.49722758648412      4.75439289816613
  H   3.68666926641554      8.15081971154069      1.75967676536591
  O   2.87983252064266      7.61918485664735      1.90911918823603
  H   2.46482409443178      7.91801342426020      2.73822082606142
  C   6.15720619596556      7.99670900351982      4.13020302694786
  O   4.82320847727779      7.71171263759392      4.53102746233768
  H   6.11180763960524      8.79575655333105      3.39666883953745
  H   4.84880183570943      6.92867270898408      5.09494740793547
  H   6.77610353584226      8.33091234109824      4.96831612873620
  H   6.63608393564039      7.13090390313545      3.66564775566517
