30
Coordinates from ORCA-job grain_mol_opt.QMRegion
  H   -2.12732456922613     -8.08566573101452      0.53571131975275
  O   -1.77952425699776     -7.54474233455523      1.27276770273638
  H   -2.55787205894929     -7.15468730633104      1.68792248819489
  H   0.15569120941956     -7.02896606786981     -1.24275127401663
  O   0.59087416662002     -7.47240848462220     -0.47344997210395
  H   -0.09705790692965     -7.45759550432749      0.20015624192479
  H   2.49153644475132     -8.03386511598002     -0.89983069960917
  O   3.08944543708761     -8.02492796242052     -1.66154715717654
  H   2.75240930292497     -8.71193997264743     -2.27170621056367
  H   -2.63980953907618     -9.91937312238400     -0.81090412857771
  O   -2.61921747637016     -8.97618079280704     -0.99929273343668
  H   -3.54606144291834     -8.67371472045619     -0.76448362430531
  H   -0.09758619514335     -8.04005314678256      2.54824511404184
  O   0.74633762084129     -7.82345352503459      2.96304773246172
  H   1.44180787945509     -8.13243767372893      2.35726011813206
  H   -2.21755778518475     -8.75940726210620     -2.86266057255584
  O   -1.96177662524369     -8.40711843109083     -3.73148650604715
  H   -1.28747630988687     -8.97874597743947     -4.12708609327119
  H   1.66935106626345    -10.55339630500198     -2.83850682861074
  O   2.07278229301306     -9.88058812099949     -3.41127138639508
  H   1.34730216282859     -9.60169738085726     -4.00828153735714
  H   3.81908544286539     -8.88087745584750      1.04051902320362
  O   3.07907124559718     -8.32357187694460      1.30423587053429
  H   3.51039749475738     -7.49814748340759      1.61697834311767
  C   0.96626475778260    -10.88378008870113     -0.19230233882100
  O   0.72470472659073    -11.48057923887659     -1.47652269576671
  H   0.77053888279525     -9.82502933879454     -0.31159221130380
  H   0.88349502219181    -12.42665270357439     -1.40952270967886
  H   0.29461230742546    -11.29033557520226      0.56551531579015
  H   1.99811109045414    -11.02633756955574      0.13148885640504
