39
Coordinates from ORCA-job grain_mol_opt.QMRegion
  H   -4.59661390716617      0.56762727875465      2.09997014760058
  O   -4.95802293795752     -0.34801489192403      2.17120139075390
  H   -4.55170386349663     -0.85435333591052      1.45280524679208
  H   -4.84451920771293      2.62388237460014      1.28005750653817
  O   -4.21529535222410      2.22472242048641      1.91876207564667
  H   -3.36620746426688      2.21649869948162      1.40684798128947
  H   -4.32721467818502      2.89837290171988      3.50908257308733
  O   -4.36101980495029      3.03491704053391      4.48036864699252
  H   -4.43253409466488      2.12362211595143      4.84682921951665
  H   -3.73103911241707      0.08913174177134      4.96251253685738
  O   -4.31771053910862      0.58302926220229      5.58885724206076
  H   -4.96717309610150     -0.08542757974426      5.90656975312670
  H   -4.43105674525051     -2.63426523522338      4.28707909025614
  O   -5.30270521298932     -2.23789013673289      4.08077082897697
  H   -5.08634423963568     -1.46892905643861      3.50711374153813
  H   -3.90051260510122      1.23045269228812      7.07318126659756
  O   -3.77090717578352      1.72696352763915      7.91226438411804
  H   -4.65651828345989      2.11783939222127      8.13756381960111
  H   -6.47654072581536     -0.08955358777809      1.06582947681925
  O   -6.72705300572097     -0.12645741259807      0.12929665278310
  H   -7.61294126116220     -0.49736519106956      0.05925906780953
  H   -6.19450809905348      3.43803573264179      7.48035766908954
  O   -6.09065738601076      2.91818483374873      8.30273886346764
  H   -6.73634467291045      2.18226069237642      8.20610579883054
  H   -5.52658306171142      3.94059650353956      5.24252037899768
  O   -6.26719071882497      4.24241612239416      5.83288781799058
  H   -6.33452037877525      5.19311331953843      5.71033051150207
  H   -7.18127032472885      0.01170172951209      7.36210932871820
  O   -7.67459078953160      0.82103002435093      7.56294963515996
  H   -7.91611855029891      1.18057816014258      6.68419545073638
  H   -5.19075949909332     -1.87668582254325      7.03097665064342
  O   -5.89836352608554     -1.37144400321179      6.59033674144938
  H   -5.92022367697688     -1.77343160059002      5.69310573336576
  C   -7.62273155848424      1.54469466790695      3.93418501210564
  O   -8.06905935337698      2.16784561730255      5.13426044874502
  H   -8.31815819460791      0.74228342014366      3.70465504732638
  H   -7.54615142840139      2.98098010959967      5.27051585378256
  H   -7.62037620834191      2.24366828376492      3.09559587089500
  H   -6.62384047117768      1.11736559648488      4.04265028714061
