30
Coordinates from ORCA-job grain_mol_opt.QMRegion
  H   0.42588523497369     -3.34823576197227     -4.04332793645583
  O   1.25759347869826     -3.01186446850517     -4.44078178975310
  H   0.94541750000837     -2.57436493333734     -5.25938107269633
  H   2.35956707039300     -4.58818716413923     -6.77177505257083
  O   2.14262268419392     -5.05180633294204     -5.94996401895215
  H   1.82666242675344     -4.32735788606499     -5.34857282401730
  H   3.35374506033889     -2.44896091922749     -8.40729170102186
  O   3.27212990694909     -3.02049269553818     -7.62698741396974
  H   4.15301843763995     -2.96189386898885     -7.19604574151241
  H   -2.82157952599932     -3.71717672764161     -6.13194709852906
  O   -2.03766246259846     -4.29562165198111     -6.03770635768180
  H   -1.70446502831911     -4.13466590247662     -5.12866368546602
  H   -0.35889556320076     -6.69789384973000     -6.43191711727776
  O   0.13533553975535     -6.86589475090095     -5.60400308457240
  H   0.95048102904603     -6.33484943592677     -5.73083280903895
  H   -2.90274369420009     -5.94646089259686     -5.34594605998884
  O   -3.52144682592345     -6.56058073209246     -4.91965248713589
  H   -3.01106937517521     -7.35047188640033     -4.66634236785472
  H   0.17179744730917     -8.39892419392739     -5.25712851810485
  O   0.04970581820262     -9.35024540562630     -4.93990891358093
  H   0.02465750720858     -9.89942353467497     -5.72384836111245
  H   -0.62576275098251     -3.13394885767058     -6.76802418812804
  O   0.03265748105030     -2.42814317456418     -6.85115806323135
  H   -0.43363683932122     -1.67203621145983     -6.43879514612279
  C   -0.32895346113438     -5.59448604362472     -8.90458660780043
  O   -1.17485233380148     -6.16360348327333     -7.90457858246611
  H   0.31349103098812     -6.38669789524546     -9.27910353347341
  H   -1.61111426908351     -5.43410928784234     -7.43161410784187
  H   -0.91305985313971     -5.19608161628015     -9.73514959458698
  H   0.29565489226568     -4.79599941711054     -8.50276087819179
