24
Coordinates from ORCA-job grain_mol_opt.QMRegion
  H   -1.59055675047899     -0.70336849112915     -4.57254773570535
  O   -1.05298497550982     -0.47309787051341     -5.35703622153878
  H   -0.34671073791770      0.10165494105211     -5.00980348951230
  H   1.97953184183415     -0.17186560139217     -7.47898217980090
  O   1.73219168329684      0.29759700688092     -8.31746170480577
  H   2.34066968862615     -0.06263244756389     -8.97437509387799
  H   -4.13251322517528     -3.05247105724018     -4.89635799088457
  O   -4.28559637727394     -2.89946490188303     -5.85838861674240
  H   -4.87208158354891     -2.12583076545310     -5.85551059672510
  H   -2.71374020293339     -3.91255079094677     -6.18755293358575
  O   -1.96660313948665     -4.48513113105415     -5.94804143838791
  H   -1.71194324857277     -4.20448214531257     -5.03760552627737
  H   -0.18274731626702      0.44254998255058     -8.15066913415735
  O   -1.10468094608296      0.66109947726440     -7.91745277757830
  H   -1.25776334851379      0.22988510507762     -7.05630734830788
  H   -0.52538899414200     -3.30234206896864     -6.68870264639917
  O   0.06149872225392     -2.53364069451234     -6.76044198354098
  H   -0.42874929203035     -1.81946769654440     -6.30861421192052
  C   -2.67289387794950     -2.14510883174146     -9.26447860751085
  O   -2.59528947941108     -0.86211290896079     -9.85729458866259
  H   -3.23966049280703     -2.78537242752003     -9.93720427254793
  H   -2.12753793287124     -0.28637034836733     -9.22913941837188
  H   -1.68520551103858     -2.59365386998823     -9.11533789583095
  H   -3.19591836963386     -2.12830084860864     -8.30236886624117
