21
Coordinates from ORCA-job grain_mol_opt.QMRegion
  H   4.45189699907765     -2.31767580565851      5.54684384294763
  O   4.15920292420133     -2.78491178531227      6.36066093250564
  H   4.50782949042406     -3.68811440614936      6.22172897306695
  H   1.98895949311254     -0.81869117099604      5.08824300811215
  O   1.50060136106087     -1.39588907448470      5.70865679688269
  H   1.45753127539021     -0.95839820726212      6.58095472360135
  H   4.29584454894696     -0.78295603127061      6.89314554858969
  O   4.38484096469253      0.13954720380536      7.16956685387334
  H   5.10615741428650      0.52545535157274      6.64359111919292
  H   1.83139667095610      2.15893310027668      8.34014811046768
  O   2.62919943121572      2.35159334662123      7.81910626625376
  H   3.03837416864517      1.48810340954646      7.65427754935139
  H   1.16343287365680     -0.32370464341241      8.75665266034624
  O   0.67603353981459     -0.12255688989829      7.94518130361497
  H   -0.25171733398727     -0.39204366173244      8.06494487768671
  C   3.09498964639975     -2.13211203793394      9.77825382145397
  O   2.90348540808278     -0.72789223425971      9.60662793829063
  H   2.27280984193141     -2.49185993503756     10.39066142625317
  H   3.61702307213151     -0.39566779045492      9.04178937159700
  H   3.08775676658538     -2.66266390695923      8.82621871748164
  H   4.03008912146763     -2.34840400022727     10.29848540560842
