21
Coordinates from ORCA-job grain_mol_opt.QMRegion
  H   4.46357569962783     -2.35342502004602      5.51298379745205
  O   4.13400735693472     -2.80099144396604      6.32299505978395
  H   4.49741010563148     -3.70044977498608      6.22151165845086
  H   2.02938764790887     -0.81403737206841      5.22137516387206
  O   1.50014876486830     -1.37677454245612      5.81798919632860
  H   1.51165641224391     -0.98751130018114      6.70564681344483
  H   4.23619692439591     -0.76196822907548      6.75692756910440
  O   4.25873257127094      0.17906072687200      6.97106125950593
  H   5.00860321440158      0.55783259515812      6.47864596604986
  H   1.84343944189341      2.27687498494134      8.47327308976582
  O   2.58317967397991      2.34443928146839      7.85031523139456
  H   2.86708866052274      1.43525113970075      7.67732337042744
  H   6.86185335868949     -2.44473774035479      6.45408413046673
  O   7.26524795839903     -3.13885982669200      5.92852029339368
  H   6.59328501634321     -3.83368915316824      5.88729843593684
  C   5.29591603724294     -1.59745775388298      9.74857101067096
  O   4.82440330160920     -0.26444791184614      9.76693245931696
  H   5.48811574198676     -1.89292623119720     10.77758489968718
  H   4.66243832747384     -0.00709162334738      8.84508903027947
  H   4.56993501080993     -2.29622621088743      9.32166389330427
  H   6.23638548149680     -1.70167793913833      9.19264101694028
