33
Coordinates from ORCA-job grain_mol_opt.QMRegion
  H   0.27122079156973      6.86930016473784      2.66406856134033
  O   -0.05656909964973      6.60479418481027      1.78785764854601
  H   0.59699542417873      5.92383509694312      1.50450766398137
  H   -0.75514665042616      6.40629144035502      5.02944252435215
  O   -1.35389440597861      6.98609500729080      5.55976281533273
  H   -1.36601816796386      7.85881053859833      5.11674028246644
  H   -0.70413099607948      8.78181257572407     -2.34013751634160
  O   -0.57961186005913      9.63482222690294     -1.84884841682588
  H   0.20243989810894      9.47716238184758     -1.28677338726684
  H   -1.90023024215864      9.60813701263049     -0.83921247538170
  O   -2.74468967308537      9.51454917283382     -0.31566692994001
  H   -3.39350532352233     10.04541173352255     -0.78763998966035
  H   -2.51850221531562      8.75725437647080      1.24136347811530
  O   -2.34243428931216      8.20147295684221      2.02327831629776
  H   -1.62838216432931      7.58198762068152      1.78011196790786
  H   -2.10790227346697      9.04100994128291      3.48714912059807
  O   -1.91617178459970      9.41118678495993      4.38270275511553
  H   -2.77714380729954      9.39196781715893      4.85233109591805
  H   1.85577734136913      8.32920735169571      0.60745138653682
  O   1.55321624887229      8.62980804838939     -0.28407612279365
  H   2.37574743017359      8.59476522656650     -0.81152998802535
  H   1.08194942633008      8.83690012429082      4.13115476971276
  O   1.27195054387611      7.87701741827112      4.00221212046995
  H   1.45107955282607      7.49740088555652      4.88762234507429
  H   3.66523610709555      8.17824984224103      1.81853993100175
  O   2.86398960501490      7.61787209510969      1.88124337044378
  H   2.47638226597937      7.72331889502070      2.77888758186846
  C   0.67133068661638     11.00186718267996      2.74239729930929
  O   0.56198341010665     10.50078613248867      4.07292100947899
  H   1.72274326623972     10.98351568322715      2.46744286065733
  H   -0.38656639784423     10.34396026427608      4.26237064878900
  H   0.11817405607000     10.38832558307486      2.02971581724227
  H   0.31311606554945     12.03104422401017      2.67620154765589
