18
Coordinates from ORCA-job grain_mol_opt.QMRegion
  H   4.47358467079470     -2.37680489581477      5.61835500751262
  O   4.07870926823430     -2.88664206085668      6.36753409127977
  H   4.41609342589646     -3.78992227487570      6.19008109898053
  H   3.96768954141621     -0.74019625878554      6.83535604631259
  O   4.02153140950261      0.21128685749126      6.95733755067201
  H   4.85113311310360      0.49067300954279      6.53823874276488
  H   1.78603644661351      2.24302127680400      8.53879551491918
  O   2.54527769990475      2.36043912266611      7.94923378874780
  H   2.87350017324391      1.46669987921768      7.74947146075540
  H   7.14262036351212     -2.81028503574938      6.84185407480684
  O   7.30403872476929     -3.27393868010218      6.00337771223061
  H   6.63487361524938     -3.96887560074367      5.98261550112645
  C   5.84602846863100     -1.46490280898213      9.38668829368759
  O   6.05769400074509     -2.37468542782208      8.31178038408884
  H   6.80983425753909     -1.28314357904584      9.85399036532542
  H   5.22555134440928     -2.49917653981408      7.81783826270469
  H   5.44049621508631     -0.51470086988171      9.03891354549424
  H   5.17341616453158     -1.88595843581574     10.13794312041741
