24
Coordinates from ORCA-job grain_mol_opt.QMRegion
  H   -5.28764731485971     -5.20294445305942      1.86955409513968
  O   -4.60562678443722     -5.79685901709844      1.49212098217700
  H   -3.76101569365538     -5.35839824903117      1.71859378822883
  H   -4.33921404421373     -2.46469916582590      4.19231624620286
  O   -5.27494268778734     -2.20510397114320      4.02712447003841
  H   -5.19288659731909     -1.42772504468634      3.42556772449412
  H   -5.81610533409214     -3.22478250717395      1.28563522358831
  O   -6.30801887473606     -3.74870297767933      1.96886994517416
  H   -6.12267250701404     -3.24105077993814      2.77743487994449
  H   -2.00931346877439     -2.96829486471928      4.60464320022003
  O   -2.89933959053475     -3.37648099788221      4.71578172980215
  H   -2.89858014777995     -4.05987614852727      4.02089640086841
  H   -5.30714702808330     -1.96565949250574      6.96263410014009
  O   -5.99498335862000     -1.45789650274699      6.49794046177657
  H   -5.93484104049107     -1.77323820045240      5.57323532180792
  H   -3.67384172522013     -3.59572434159901      7.88865180268790
  O   -3.69265386932729     -2.84437517414231      7.29263468807763
  H   -3.42924536589979     -3.20156002292266      6.41945456053010
  C   -7.07002528068298     -5.05950314322378      6.02794450455033
  O   -5.70892118293956     -4.84868785754359      5.66482976856844
  H   -7.07077236776806     -5.71512874084730      6.89475878267684
  H   -5.70026046163835     -4.24087828207973      4.91775230795802
  H   -7.56965812058303     -4.12762397683940      6.30173380490275
  H   -7.63694892467857     -5.54693955563780      5.23126837349924
