39
Coordinates from ORCA-job grain_mol_opt.QMRegion
  H   -0.33964409089606      6.85434037293342     -2.24459092165719
  O   -1.09472108294837      7.24018012677252     -2.76567982391432
  H   -1.87359731675727      7.12384911856660     -2.17338135969638
  H   -0.74721095704810      4.39550291115203     -4.04704721646598
  O   -1.47669685107980      5.00653875184117     -4.25491748901405
  H   -1.30435957857786      5.82851361743838     -3.75145919732862
  H   0.69517715075479      2.94290247638434     -2.68804544976750
  O   0.72544965523534      3.28134820397366     -3.61605023803860
  H   0.81959447836116      2.47590186823402     -4.15729653104742
  H   2.26781767578088      5.74761824631066     -1.24558611200684
  O   3.19219404584991      5.44392853469176     -1.08970664180566
  H   3.34040220773126      4.71820533701155     -1.71713665643875
  H   3.54421534233883      3.15488988022254     -3.70984522820112
  O   3.29381776335489      4.09731485608978     -3.55433913493048
  H   2.31608764768143      3.99267464716528     -3.52652296561086
  H   -1.83599972392627      6.19434930718697     -7.08248816301985
  O   -2.09316880739870      5.33968172494673     -6.73292859653782
  H   -1.77289718427045      5.29412613851808     -5.77343234730758
  H   0.79430513496309      2.90059824434766     -7.22329270660166
  O   1.72268994792583      2.58088736434462     -7.26116478448672
  H   1.71219713509258      1.81210208155248     -7.87035675430551
  H   3.54408504041415      2.91655053669004     -6.74014251970140
  O   4.37878544077395      2.61561231241374     -6.34742721212598
  H   4.12218572208094      2.24563375771482     -5.47901024180848
  H   3.82432384552737      7.10170089523445     -1.40395945539425
  O   3.95569136036555      8.06703183440320     -1.48644444082057
  H   4.27272843444220      8.15744745920798     -2.39838338074861
  H   -1.44899126267945      3.67042130258815     -7.05451463788096
  O   -0.90285581280118      2.91590744633496     -6.76453312827977
  H   -1.15240128863213      2.11466102888815     -7.28731526643642
  H   4.28894413619269      6.99358895479427     -4.74456475071129
  O   4.91152967137464      7.45889434395007     -4.14884799821703
  H   5.60324406593048      6.80702280582094     -3.99061647006448
  C   1.83213490104143      6.17266635399417     -5.78523902874910
  O   3.21201215962506      5.83185713208436     -5.72986684836948
  H   1.73670600098353      7.06780095163840     -6.39466096251061
  H   3.30237585110355      5.10338016211892     -5.08130554343799
  H   1.24132371983515      5.37790422074837     -6.24465454616861
  H   1.42235311731012      6.38362729956072     -4.79412423369665
