15
Coordinates from ORCA-job grain_mol_opt.QMRegion
  H   3.30839725910080     -2.43674937388397     -8.35716829692681
  O   3.21875314564586     -3.03094394433005     -7.58632471389975
  H   4.08937224316781     -2.98141254959348     -7.14852829897780
  H   4.85436195503170     -1.28309372201184     -9.30726384615834
  O   3.91460532251611     -1.19498219499372     -9.58461451966232
  H   3.87798643913523     -1.70645857136843    -10.41042343443333
  H   7.01574995406302     -1.00371604389770     -8.29189066459130
  O   6.43969189399839     -1.72064111427945     -8.59379668597980
  H   6.17502859804312     -2.14857121661114     -7.75915262204272
  C   4.75469404245276     -4.19882506197473    -10.65944922416088
  O   4.24918345739088     -3.17757395056583    -11.53471691787881
  H   3.95512934667404     -4.43801007789103     -9.96725163047308
  H   4.93949305491443     -2.96453894480911    -12.17041686673056
  H   5.02072465000998     -5.09805608532809    -11.21503131133050
  H   5.61832620513521     -3.85127545955695    -10.09165784191092
