21
Coordinates from ORCA-job grain_mol_opt.QMRegion
  H   -0.59512370877676      2.22980737507189      7.72929876490504
  O   -1.17671784982469      2.01886351557157      6.98123324667494
  H   -2.06232602418703      1.91660615558357      7.34923182471443
  H   -2.51230773142072      3.07074580051181     10.51254797284801
  O   -2.29227781979792      2.15259128935285     10.25519173118605
  H   -2.88752088725663      1.95820525640856      9.51465215728862
  H   0.04415943554699      3.46084515127562      9.04618558299106
  O   0.31499536585817      2.55787162605073      9.31095607035349
  H   -0.45925110562141      2.25589388248007      9.81911565916895
  H   0.80899146797968      0.48619394984933      8.49208271163344
  O   0.82464189905456     -0.44207058008196      8.23916719376408
  H   -0.11147477816855     -0.66573769608893      8.10844027531643
  H   -2.58571413640761     -1.59206043527762      7.57652627997813
  O   -2.01283183197111     -0.81507868099158      7.71106280575003
  H   -2.61141918977264     -0.13843545678746      8.04031999637394
  C   -1.14368193201639     -0.91179157372497     11.35712221305482
  O   -2.12248274043068     -0.17044530624304     12.06983555571529
  H   -1.01587748422529     -1.86067260472955     11.87353621507480
  H   -2.28691331244605      0.64238684343762     11.57098469324212
  H   -1.44901326445157     -1.12356612553224     10.32935150415333
  H   -0.17092347126175     -0.40983325507376     11.33362841631638
