15
Coordinates from ORCA-job grain_mol_opt.QMRegion
  H   -0.61590086433474      8.86764504104395     -2.12801798762092
  O   -0.46959713483164      9.62908030076475     -1.52929552502431
  H   0.29173697175474      9.36498252846732     -0.96885932892739
  H   -1.90351379040394      9.57525107193137     -0.62587035603080
  O   -2.78961380598151      9.47202959756304     -0.20905765481601
  H   -3.31735967288406     10.21232959333740     -0.51390856558849
  H   -2.23458456849262      8.79266624037371     -3.77276605743946
  O   -2.83726144308059      9.48826583637999     -4.06810531886241
  H   -2.61978065405092     10.26492575625036     -3.52125772731459
  C   -1.91537480255933     12.97294305938473     -2.78820301051648
  O   -2.16102571575171     11.65336741933416     -2.31090671044152
  H   -2.87275357241067     13.39580650879867     -3.07940860272028
  H   -1.31680822296607     11.24031965844176     -2.05923850741365
  H   -1.47956615750250     13.60382842126750     -2.01111922918833
  H   -1.25519473674153     12.97424755563559     -3.65769682999613
