33
Coordinates from ORCA-job grain_mol_opt.QMRegion
  H   -2.28353556370234     -7.96757075840144      0.43980338692871
  O   -1.91249072214680     -7.48939933728917      1.21149895777572
  H   -2.67465069067089     -7.10648284921464      1.66137232567352
  H   0.01679186203304     -7.10409400024097     -1.29622536732980
  O   0.40265497227780     -7.55671192552778     -0.49442933453430
  H   -0.27014620838948     -7.40432564286002      0.18261195066645
  H   2.51756584542617     -8.08140699883076     -0.90961088845246
  O   2.99290760881934     -8.03280570599637     -1.75208492099859
  H   2.60878008164243     -8.72612350513846     -2.32921652168482
  H   -0.95793648940651     -7.05883593648776     -3.32681138304656
  O   -0.49205946441251     -6.42571157132299     -2.74052607742725
  H   0.40930811445837     -6.30975699633291     -3.14056330097968
  H   -2.51315927528104     -9.68642028602989     -0.97352796513101
  O   -2.68851671784414     -8.75331857204171     -1.13692717497923
  H   -3.64267077705110     -8.59833932530711     -0.87909523374610
  H   -0.19833268189594     -8.09025351981816      2.48598668615695
  O   0.65584605421273     -7.85639436921558      2.86760950307928
  H   1.33516600209381     -8.16831364533497      2.24540220092464
  H   -2.36360068512306     -8.66122969336298     -2.99099797390469
  O   -2.07825667594143     -8.33739146804841     -3.86529914416849
  H   -1.47659359854435     -8.97906510921506     -4.26444191589031
  H   1.12232174085269    -10.19736119728742     -2.62567074475682
  O   1.74244718708855     -9.89618118005229     -3.31722827605771
  H   1.14992171526673     -9.60765754409139     -4.04151426640892
  H   3.69580425256231     -8.94675089322222      0.99459355696888
  O   2.95854956384741     -8.34512192121095      1.14326702246210
  H   3.39194331563577     -7.52881986008067      1.48454262899934
  C   0.43973631487267    -11.01199376326660     -0.03451574625030
  O   -0.00439532326252    -10.20261805828087     -1.11939591530354
  H   0.35742159292134    -12.05117620988438     -0.33798364283028
  H   0.12765314580462     -9.25622556188198     -0.86874622811094
  H   1.48091532297009    -10.81009625469289      0.22398653723575
  H   -0.17948219467108    -10.86649882140824      0.85404581108657
