24
Coordinates from ORCA-job grain_mol_opt.QMRegion
  H   3.30535558896181     -6.08816328091004      3.02519767220441
  O   3.73444620480068     -5.90247932080363      2.14732987477680
  H   3.01345223613778     -5.54665687453984      1.57759035981896
  H   2.22065240915697     -5.56294919197340      4.76505367877423
  O   2.61761502960502     -6.43261340439231      4.48103421657337
  H   1.87076949398884     -7.01229705484737      4.27842559577387
  H   5.65963654884514     -5.26765742458482      4.66378336543111
  O   5.18627749856373     -5.25553841374673      5.53586243575412
  H   4.33604999035754     -5.68237395055792      5.38105106279743
  H   6.57687273054118     -5.92720810307134      0.63398815647776
  O   6.21254576685792     -6.63949489016341      1.20742559740068
  H   5.28919963738929     -6.35510140275894      1.35944796567750
  H   6.77476164629987     -5.80928808303926      2.66798459845278
  O   6.81909346676380     -5.19455426386827      3.43019552484351
  H   7.70496118444810     -5.29239121599244      3.83743553103808
  H   3.28726993012076     -9.11483463280755      1.32615510384765
  O   2.70538910489349     -8.35379274027704      1.26543647828433
  H   3.25668979889476     -7.58657220637101      1.51070713709121
  C   5.75145382215078     -8.50624880960804      4.71983136475277
  O   6.25362712056218     -7.97561933742148      5.93290661743507
  H   5.96061931433862     -9.57343964419985      4.71965672484398
  H   6.00326557803863     -7.03854843011575      5.96395271067969
  H   4.66756555282423     -8.37599265399259      4.62664804013617
  H   6.23526094850314     -8.07213500186480      3.83917817358626
