27
Coordinates from ORCA-job grain_mol_opt.QMRegion
  H   -0.19118532251864     -3.64665278963580      3.71171670307144
  O   -0.43553772093593     -2.80677727128574      4.13601103737181
  H   0.18041295324312     -2.71422057944486      4.87536152741036
  H   2.08073556376759     -3.65785059106887      4.14596686649615
  O   1.99977132728296     -4.14418263027372      4.99495086904261
  H   2.53365509195664     -3.60798008348653      5.60425833987102
  H   4.51908655478177     -2.32154342855031      5.63191283800485
  O   4.27191300490480     -2.87168442106496      6.40950471974035
  H   4.61364682453292     -3.76070181888186      6.18342558880358
  H   2.36279977626452     -5.74180973569930      4.75660357132524
  O   2.75283102197804     -6.62403052274362      4.52978743765539
  H   2.02161600505902     -7.18413713121534      4.24140768314817
  H   2.07340634077877     -0.85074030427348      5.18353492661774
  O   1.54522303216042     -1.37409491800928      5.82145900544938
  H   1.62105746522935     -0.91973860139728      6.67609818818945
  H   4.37357888225790     -0.73473963775912      7.17944956529315
  O   4.15637020206600      0.14918841782583      6.87289805116095
  H   4.97277106173108      0.53296925971828      6.51469423290837
  H   0.57104871102640      0.54658508475811      8.76738760811945
  O   0.58702142838761     -0.22099305651159      8.18289272247645
  H   -0.34937904133635     -0.47257243377220      8.07528171701811
  C   1.42605964338833     -3.65026806162355      8.83066236346193
  O   2.84685682822036     -3.66659129850265      8.84717410213135
  H   1.09146638352727     -4.13613231517656      9.74474132633341
  H   3.16625328590344     -3.24649101360307      8.03712541198536
  H   1.02555879625741     -2.63510475953952      8.82034793873751
  H   1.01545271288627     -4.20700485088943      7.98231115572702
