30
Coordinates from ORCA-job grain_mol_opt.QMRegion
  H   2.18359550877190      5.79678857542052     -1.24530415780512
  O   3.09795541638820      5.50033117438080     -1.00685385618910
  H   3.29109343262814      4.81342153032328     -1.66088786628226
  H   5.06625946110908      5.77212172989613      0.59639127477326
  O   4.78559546396916      5.73673775726088      1.52568045269651
  H   3.92874747832813      6.20474948968910      1.55913028137102
  H   3.74646769643354      7.13344925074896     -1.29505764529188
  O   3.86631382002289      8.09314454925363     -1.46519526035523
  H   3.97867721771496      8.11189628945396     -2.42455126340767
  H   6.11131412755682      1.90053144561701     -0.53612700597186
  O   6.70702604920045      2.10621440643499     -1.27318770886885
  H   7.49937991190639      1.56157832926252     -1.07763274359137
  H   4.56888925182062      4.04450689385632      1.71250110339919
  O   4.34170781674544      3.11243017844705      1.94862218717949
  H   5.06216419422906      2.54095220892455      1.66277577145370
  H   3.75179972015325      6.05773780519193     -4.00313007324179
  O   4.05326133404109      6.95452680649912     -4.23409154318808
  H   4.83490995209658      6.80700070168273     -4.77480104061404
  H   4.84125659099896      8.61946022644537      0.13302395162226
  O   5.07862706231066      8.74459771783346      1.07070711846308
  H   5.53386394949882      7.92506008671463      1.30064525895967
  H   5.29264704446776      4.24027185918739     -3.23298889451835
  O   6.24920730759110      4.18785783876918     -3.10579559559820
  H   6.38524881859417      3.48504520666143     -2.43560505543345
  C   7.73473230246508      6.15990422430712     -0.41074903431340
  O   6.37648979289544      5.97757195642757     -0.79374603518661
  H   7.73948568448613      6.50448776249877      0.61944299286256
  H   6.35363129850940      5.53485443056213     -1.65758399418898
  H   8.30148500549977      5.22821740349655     -0.46059668425942
  H   8.22869411426657      6.91200166008655     -1.03028816123918
