24
Coordinates from ORCA-job grain_mol_opt.QMRegion
  H   3.24213997470956     -6.15861015303973      3.05076457071736
  O   3.66566651612233     -5.95130852178738      2.17903783901756
  H   2.94553885786083     -5.58932183730381      1.61439048416048
  H   2.17624238084415     -5.65441710741978      4.80944287678098
  O   2.44990732853626     -6.55756024470821      4.48292789993874
  H   1.64110366486193     -7.02323528862042      4.22789448708150
  H   5.70853015132633     -5.19887028690908      4.67400696852938
  O   5.30167040014270     -5.07162003684457      5.56093127932344
  H   5.22026722077046     -5.96458341261375      5.92906243077769
  H   6.49988230855227     -5.97309731976890      0.61724893163481
  O   6.13565312086708     -6.69136761972832      1.18402020502177
  H   5.22132592951268     -6.39416423540893      1.36267413964252
  H   6.76565579556535     -5.86691243023131      2.62158924164831
  O   6.80266072527342     -5.24556309705244      3.37519464939368
  H   7.67901708078690     -5.33087560213365      3.80295430211678
  H   3.24925232926795     -9.13239452241653      1.18133610523616
  O   2.63731957891697     -8.39534941591443      1.24919987306454
  H   3.18421572489347     -7.62967732507374      1.50610048248552
  C   5.29728973017934     -8.53294939190774      4.82317213242241
  O   4.61987177524655     -7.77553716566326      5.82027551579828
  H   6.26342561902025     -8.82164358678962      5.22865628114940
  H   3.77398574703900     -7.47207346712219      5.43981331937117
  H   4.75018294731583     -9.44279000744361      4.56439690974832
  H   5.47202542743463     -7.95594062687689      3.91248475111430
