33
Coordinates from ORCA-job grain_mol_opt.QMRegion
  H   -0.05747830638304     -3.48685438297707      3.79092296178648
  O   -0.36983712433307     -2.69080513275460      4.25369814462798
  H   0.32311905545298     -2.50536221260724      4.91003355791235
  H   -2.41622986815530     -3.64456535273626      1.97445410937840
  O   -2.44668966218369     -4.54272593247248      2.36879396493464
  H   -1.51607829943747     -4.84269236028511      2.39394303817498
  H   0.83046957256905     -5.03758832842322      1.92736050326400
  O   0.27153439295748     -5.09250341773576      2.73058358874050
  H   0.38505850773695     -6.02329446531319      2.99642793944434
  H   -2.07272771741792     -8.09324389901952      0.42815429337597
  O   -1.77845007988656     -7.60275831189513      1.22560011528007
  H   -2.58460276718879     -7.20783184177381      1.57943890523069
  H   2.18967614297671     -3.56435140232061      4.23785713716092
  O   2.14060595009904     -4.02195294161545      5.10318553335490
  H   2.66387351130555     -3.45870483960196      5.70569731597471
  H   2.53286173932115     -5.57721684266431      4.84174353372090
  O   2.89886739894533     -6.47891398604953      4.62781916777624
  H   2.15107331550140     -7.04804482885090      4.42046169286107
  H   -2.06838395855726     -2.98784595170580      4.71088313012043
  O   -2.91650255351417     -3.45662559277016      4.85985683977683
  H   -2.87231997100608     -4.17340470941589      4.20143085873976
  H   -0.04934986782442     -8.10178565241491      2.54578663855739
  O   0.79541079396329     -7.86987395447395      2.95345704188280
  H   1.48090263147547     -8.12980965643350      2.30603362680153
  H   -3.56606919155269     -3.55566703839647      8.00577840680636
  O   -3.63441158984610     -2.87574265968176      7.33667549453045
  H   -3.36960918019773     -3.27230265297715      6.47052356690166
  C   -0.93766824983548     -6.37527067079508      5.81055131515193
  O   -1.79547200109574     -6.53039302405915      4.68008747941352
  H   -0.37490480666394     -5.45940075114040      5.66059896922080
  H   -2.27144634593289     -7.35973159090064      4.77755445217616
  H   -1.50256530141503     -6.28671446895697      6.74097364744092
  H   -0.23477164745747     -7.20443973586778      5.90394957933419
