39
Coordinates from ORCA-job grain_mol_opt.QMRegion
  H   -3.52880435339402      6.41760432182699     -0.62273599837056
  O   -3.37287992610941      7.05739764716724     -1.37195302462081
  H   -3.14846207501227      7.92986043201825     -0.95386120981458
  H   -3.96210990244617      5.80796068176480     -2.65574142916051
  O   -4.24348967322605      4.96231229600507     -3.02346049236013
  H   -4.02422834336217      4.95756808614374     -3.98340945209722
  H   -0.32868450301767      6.91206828706380     -2.41022137264703
  O   -1.12415392246430      7.25146430272116     -2.89810383449398
  H   -1.87071108437952      7.08832558570929     -2.26913055479521
  H   -0.52524381305723      4.49546424477074     -4.21331169790880
  O   -1.29595535664953      5.04012411834967     -4.47923065724105
  H   -1.21833365452560      5.85284589834431     -3.94319775184972
  H   -5.05788851497995      5.67352129931505     -5.68085627170600
  O   -4.42425235898796      4.92748031653630     -5.72132391628448
  H   -3.73519754619557      5.13191156829620     -6.37278730065892
  H   -0.35184510596875      9.15796845236139     -2.25439184741240
  O   -0.26450377628998      9.85845162391347     -1.59270129004942
  H   0.45408910361674      9.52107179561384     -1.01729741294629
  H   -1.72866507864949      9.64971321953256     -0.83585907509665
  O   -2.64550527310488      9.47351934888808     -0.49227974372556
  H   -3.21497091335423     10.07557509552395     -0.99497931355132
  H   -1.41349389207565      5.85773506098457     -7.48477128127288
  O   -1.97920005107974      5.29162540438737     -6.95704467647168
  H   -1.59238110968634      5.27540555890028     -6.02557524322205
  H   -4.03966833525314     11.50966650251745     -3.01569302341230
  O   -3.96351442069358     10.58154716573463     -2.77795082620812
  H   -3.28392877645269     10.20079451370396     -3.39127089866805
  H   -6.05058133345781      7.29961897258709     -4.21681396901749
  O   -6.35109391452277      6.65844001197727     -4.89870677111539
  H   -6.67786567434253      5.90113876993474     -4.34403009848199
  H   -5.26251722957207      9.14877450518224     -2.84347338229680
  O   -5.61978585168451      8.24811558431277     -2.78319872033504
  H   -5.00482938910142      7.79915240055659     -2.17831231885158
  C   -3.04264341173974      8.57702832005785     -5.42915968337523
  O   -2.27299194430780      9.30201505918375     -4.46539122062009
  H   -3.58929750757660      9.30404389611114     -6.02242773394568
  H   -1.74511989407985      8.65191299972578     -3.96692636106778
  H   -2.39701343258760      7.99996429518541     -6.08993728503005
  H   -3.75633337112883      7.91009485952707     -4.94827907859266
