24
Coordinates from ORCA-job grain_mol_opt.QMRegion
  H   -2.75797977164653     -3.83303111860358     -6.08328556246221
  O   -1.99199266317102     -4.41331320834687     -5.92827524822676
  H   -1.66949014474559     -4.16419318689147     -5.03229921932378
  H   -0.52267953564724     -6.65958827166521     -6.20466938753462
  O   0.10524875402026     -6.71092753174841     -5.46305372469139
  H   0.87997541528793     -6.16197361149667     -5.71381391246780
  H   -5.30674796796986     -5.75649223251756     -5.37064843715756
  O   -5.91956575731803     -5.12275351194362     -5.76853606817177
  H   -5.35877958817141     -4.33994525880553     -5.94260078167873
  H   -2.78748161250160     -5.89880094174527     -5.25683723642793
  O   -3.41061897079665     -6.60696256661997     -4.97885518173285
  H   -2.88460486522951     -7.33929752119309     -4.59851464486495
  H   0.21605260467622     -8.26382872139200     -5.15853117647277
  O   0.07567455296190     -9.23156150806945     -4.91309706149038
  H   0.03049968613868     -9.70210734516552     -5.74630028127868
  H   -0.55965950304597     -3.26981292566712     -6.68014291932203
  O   0.06882392047237     -2.53403302226285     -6.72222943614642
  H   -0.43051513642497     -1.79337187134302     -6.31554352636357
  C   -1.94166846943324     -6.56154151599849     -8.64792119183116
  O   -1.83822243277141     -7.30410193927805     -7.43213054817304
  H   -0.98216640532938     -6.63779479013597     -9.15165022630806
  H   -2.64930436453971     -7.15890245379349     -6.92136558527900
  H   -2.71298261112792     -6.97333842702508     -9.30056580625854
  H   -2.15562515328652     -5.50954730064060     -8.45868674203584
