36
Coordinates from ORCA-job grain_mol_opt.QMRegion
  H   -3.68472799360533      0.04156804463678      4.94208739597016
  O   -4.23632962830466      0.51923857229905      5.61400570121039
  H   -4.99378527345556     -0.06475932427766      5.79399388420140
  H   -3.82649635497434      1.17081833404253      7.13973045160003
  O   -3.76052064139194      1.79581606912932      7.90124400732338
  H   -4.68457666260667      2.16466995548586      8.02143864277398
  H   -0.43160890414641      2.07668948561126      7.67840492304135
  O   -1.08028562175651      2.00485850314002      6.95977886766195
  H   -1.93877644089188      1.91584468014041      7.38987535726766
  H   -2.45443333814325      3.07808511838654     10.49108471590005
  O   -2.28750171717864      2.16174038038930     10.19568691295888
  H   -2.81641915685185      2.05426528321045      9.37508412729914
  H   -6.23184484652347      3.40207367688100      7.34551227383467
  O   -6.11006497134996      2.88835288480168      8.18569520713851
  H   -6.74726517810612      2.15353695052394      8.10908395378372
  H   -8.43545013482832      0.76398452751671      7.17368719825135
  O   -7.65216515768598      0.59617378365579      7.70485616907767
  H   -7.17865319039034     -0.11089912536354      7.22744362319691
  H   -5.39201331318174     -1.90019612233096      6.87353610594920
  O   -6.07073851818059     -1.38785141377746      6.39597368702852
  H   -6.03164296512351     -1.79116203399515      5.49885520995542
  H   -3.81664375968054     -3.74850921748848      7.62231344310675
  O   -3.73576896503752     -2.92203342470132      7.13737397806863
  H   -3.46230925030606     -3.19923675322283      6.23398266108964
  H   0.82212132044962      0.41501478635043      8.75331691399076
  O   0.85104791240034     -0.40688671431467      8.25562699907162
  H   -0.08609347861253     -0.67900086062297      8.17517384074981
  H   -2.36105501718704     -1.61842255049282      7.67269130313022
  O   -1.88487443366735     -0.86504671636559      8.04918812984033
  H   -2.23714490953049     -0.79704483021358      8.95947719384119
  C   -4.33612850200875     -0.58784135404910     10.58362063857470
  O   -2.91753041432928     -0.48145405959089     10.61623748862621
  H   -4.58395398497367     -1.63877272190401     10.45712453234574
  H   -2.69761438365210      0.46390816863192     10.73477868629569
  H   -4.78614491259822     -0.24122437187985     11.51580331104667
  H   -4.76915884337163     -0.02872093115595      9.75181295560464
