27
Coordinates from ORCA-job grain_mol_opt.QMRegion
  H   -6.09243108848519     -1.56439316840235     -3.48347642431311
  O   -6.21161802451293     -2.19292742642634     -2.74873885452486
  H   -6.98877414709372     -1.89939518505920     -2.21755254040126
  H   -4.96689786116462     -0.14245615430574     -4.94392012263924
  O   -5.37107645854345     -0.99803772984024     -5.16770105208629
  H   -6.02864276626106     -0.83174285058820     -5.87819710864855
  H   -7.37575877008182      1.52114345996062     -5.20015879258982
  O   -8.01378523278046      0.80019360091092     -5.03293686996159
  H   -8.89110135659043      1.26319909267826     -4.93103672477624
  H   -4.03577542297540     -3.35348296447662     -4.92070002799473
  O   -4.15022033429981     -3.30220030688163     -5.90077001632313
  H   -4.40012591853343     -2.36786008467633     -6.00398692286284
  H   -6.97406337104974     -3.55639789806347     -3.55455586742223
  O   -7.59116272516333     -4.20839763517978     -3.96037813893631
  H   -7.03341947795344     -4.73851874357651     -4.57504143039034
  H   -5.20507616096814     -6.03747328244468     -5.38095185541781
  O   -5.89636751826302     -5.44429492891222     -5.71713663094488
  H   -5.38619657213908     -4.65269315466436     -5.98255440475303
  H   -8.90532681099205     -2.96714127750223     -4.11283114261262
  O   -9.52665166488001     -2.24230058665921     -3.88086686569351
  H   -9.24424224822164     -1.48298664592014     -4.39925538210608
  C   -7.95079951384192     -1.96255758275775     -7.45833252132609
  O   -7.24894412383026     -0.75668788380871     -7.15159505177146
  H   -7.38002502912111     -2.48410445278528     -8.22145277948366
  H   -7.79560235421381     -0.20114083070732     -6.56199020863067
  H   -8.04518387216641     -2.61756555779279     -6.59060095842194
  H   -8.94537700053943     -1.75268896355567     -7.85428819329837
