21
Coordinates from ORCA-job grain_mol_opt.QMRegion
  H   -6.93663929228606     -5.08990149825499     -1.40220925781725
  O   -7.86103260647196     -5.36607268853604     -1.62912908794000
  H   -7.98014359022020     -4.94072846067972     -2.50737328788462
  H   -7.06629221170666     -3.28397450234821     -3.47934475487323
  O   -7.67267973104375     -3.91317572334542     -3.93612358551500
  H   -7.11682238952092     -4.31168846495224     -4.63694770080605
  H   -5.30151962122903     -5.61211774819779     -5.50181762956311
  O   -5.94427887688745     -4.96541386232674     -5.83942313068421
  H   -5.39136357274960     -4.19295458653396     -6.08076486497108
  H   -2.96380729006502     -5.81815985743860     -5.42053010771074
  O   -3.59933282543805     -6.42337566258142     -4.98608610535462
  H   -3.10774258125056     -7.23315021390801     -4.76167275696395
  H   -7.75154913590984     -8.45088026387028     -1.30217141697357
  O   -7.11979386222656     -7.93677252305408     -1.81209874520975
  H   -7.46775538586591     -7.00907675553297     -1.77876576855775
  C   -8.28439067839334     -7.36238586612056     -5.37433054239701
  O   -7.84149906472895     -7.09155115297292     -6.69596997610784
  H   -8.89721644188340     -8.26053150205997     -5.41637784536458
  H   -7.27750197110074     -6.30681690129449     -6.65578247278285
  H   -7.45921715451338     -7.55301385554241     -4.68305432934912
  H   -8.90111800939266     -6.55510271041152     -4.96656960546324
