18
Coordinates from ORCA-job grain_mol_opt.QMRegion
  H   3.35291696606459      2.81235932630449     -6.71481699561409
  O   4.19723926410672      2.56475553151490     -6.29956271597248
  H   3.95266158495831      2.25852460948450     -5.39698112446826
  H   4.05807875349810      6.07478727538039     -3.87874435170554
  O   4.69592629074653      6.80564232684594     -3.86958681559450
  H   5.51069580708390      6.38078411725034     -3.57689984022553
  H   6.61859057131052      3.29645489886938     -4.56580966244975
  O   6.78568658676318      2.73230310023224     -5.35349799626620
  H   5.95858851940906      2.81063365350008     -5.86447938163889
  H   5.12376994971790      4.13235898969959     -3.11807672192545
  O   6.08744167181355      4.09985608526608     -3.07028677627942
  H   6.27444100666967      3.48540935416230     -2.33250735605815
  C   7.98118675170761      5.86012832241375     -6.12918087401485
  O   8.37127138791944      4.67023360921824     -6.78727352109598
  H   8.46904270141522      6.69190612019333     -6.63266940328062
  H   7.91719174526147      3.93819791521499     -6.33688346664132
  H   6.89949729545416      6.03027953229920     -6.16958173315242
  H   8.29085362001841      5.87829216685362     -5.07749933573445
