24
Coordinates from ORCA-job grain_mol_opt.QMRegion
  H   -3.58363102738932      6.30232343371212     -0.50246882012737
  O   -3.34648948618536      6.95898966656994     -1.20419554442452
  H   -3.20488555409795      7.81507633996540     -0.75562086545406
  H   -1.89743635594581      9.64704065805761     -0.72010158558345
  O   -2.64525613513968      9.32895071682193     -0.15831984852488
  H   -3.33685904279723      9.99676788673993     -0.12775660520604
  H   -2.28778537949192      8.64326603747984      1.35058407875399
  O   -2.13602127715047      8.08681345259665      2.14431637187275
  H   -1.36470498755269      7.52801477870566      1.91540632113642
  H   -4.41330863937036      6.45558547526409      3.53684175807151
  O   -4.49377834971357      6.93895170425291      2.69530255955313
  H   -3.58661174319249      7.30421220477335      2.54470723061269
  H   -1.81071608078624      8.96230578854455      3.60992224121570
  O   -1.59461034678323      9.28360426334066      4.51328498162693
  H   -2.45073650012505      9.31419400730760      4.97310286770367
  H   -4.05329599853965      8.64888741455158      6.79823736167778
  O   -4.12143721925894      8.66217150926649      5.83846590252537
  H   -4.15299174200604      7.71475348747964      5.59837624720596
  C   -5.43036825389543     10.48141630302651      2.49892566634561
  O   -5.08166595807941      9.50683228667602      1.52624929161996
  H   -5.12630706289173     11.45385386074468      2.11726495948904
  H   -5.15583404207100      8.63601506465341      1.95102182174061
  H   -6.50887349997092     10.50811623355770      2.67888934882001
  H   -4.92537387135334     10.30888411217579      3.45087758889560
