24
Coordinates from ORCA-job grain_mol_opt.QMRegion
  H   -3.96930252363257      1.07525008436945      6.94414787677822
  O   -3.78993230808036      1.53190617789614      7.80820174217460
  H   -4.66041614452425      1.94225619943233      8.02689855721905
  H   -3.89510007821747      4.74135784417949      7.68508067621228
  O   -3.29119256068692      4.29370997235556      7.05375895810981
  H   -3.50104297138977      3.35064791304487      7.11766804229970
  H   -2.40516027798092      2.98370761325979     10.35498031579018
  O   -2.24748047073352      2.02123268674638     10.28223379602432
  H   -2.76981057632177      1.75736386400275      9.50991113575786
  H   -6.26321150172651      3.28758765789818      7.30802266674789
  O   -6.13652556533934      2.77541799448894      8.14446673379703
  H   -6.74504703705502      2.01631092980617      8.04297609130093
  H   -2.13556143316248      5.41052342704534     10.59449194518642
  O   -2.85062628672315      4.73734821052547     10.53491821406263
  H   -3.34001403964524      4.74475354220561     11.37302952971969
  H   -4.26917508388423      5.26502602679214      9.55080788387582
  O   -4.94775457754527      5.43385402013588      8.86144565955939
  H   -5.58871418552665      4.71895558094783      8.96248153265697
  C   -5.40549690033305      2.82430244556896     11.85137475700752
  O   -4.97271363998302      4.12970964931284     12.26404235906453
  H   -4.53072074313392      2.18402471784120     11.87842378080008
  H   -5.71538274633210      4.73475472822921     12.17339570767627
  H   -6.15950006763348      2.42683858772473     12.53206176434284
  H   -5.80848193471116      2.82628025322316     10.83763263573316
