27
Coordinates from ORCA-job grain_mol_opt.QMRegion
  H   4.08882994388701      5.67570625468261      0.40501977934202
  O   4.48115962935722      5.79400016752781      1.29247928905011
  H   3.79218293586640      6.29776415224188      1.77202385224270
  H   3.92248031605646      4.55394560168472      6.37795723270183
  O   4.04216789025853      5.31728424446219      5.79900702679268
  H   3.46936893487618      5.10369026388698      5.02284246062131
  H   5.26379722651125      3.61569365914300      3.56433283888540
  O   5.95625847237548      3.92288257588513      4.18213417176973
  H   5.47746215451778      4.53261269790486      4.76392413097544
  H   2.59272756063921      6.50148004131908      6.33058901233419
  O   1.62899461468250      6.60333551903008      6.29868765668922
  H   1.32695804639780      5.67046726525609      6.21776069285246
  H   5.07291829517524      8.56919187420380      0.08105068492224
  O   5.65976034424152      8.39160321265845      0.83719638030408
  H   5.50737957599982      7.44199448017875      0.99357705871351
  H   0.12798217581265      8.73159024537633      4.30052548933910
  O   0.81988909179907      8.08999642008604      4.08447835742476
  H   1.03056295602668      7.57600769704213      4.89124894539053
  H   3.36765091738763      8.52054803556214      2.39357445182989
  O   2.68667361854314      7.86348854394997      2.14959984828191
  H   2.02482823968514      7.97246482724407      2.86466378145917
  C   5.15960868761763      8.75151975619597      4.41135745642522
  O   4.71934535066969      9.43884390839675      3.24509974937221
  H   4.52700191311792      9.07220422322540      5.23664628685540
  H   5.26674522220326      9.16870619121809      2.47808300621321
  H   5.07070533823088      7.66637808706521      4.31619376493757
  H   6.19422083879267      8.99535845192738      4.66355017163513
