36
Coordinates from ORCA-job grain_mol_opt.QMRegion
  H   -4.91994700383982      5.96889039843433     -5.60180600224457
  O   -4.34378632218563      5.17639824787232     -5.65233597497260
  H   -3.55656099237991      5.36868814041623     -6.19408989791813
  H   -5.82404700449114      4.78239740859512     -2.94812013743018
  O   -6.73486661484549      4.68642556204011     -3.30618008862568
  H   -6.60163778482645      3.97430495100821     -3.97076872076195
  H   -5.19371091095477      3.66799418851965     -5.54047229589741
  O   -5.79612798382214      2.94945240645934     -5.24635470186798
  H   -5.20452284115271      2.27633454820906     -4.84808367673099
  H   -5.16284598594776     -0.01916770480368     -4.73729892146401
  O   -5.73562749428381     -0.75353630060103     -5.01534478832499
  H   -6.61809407831587     -0.37152467888038     -5.14856095408851
  H   -8.22202387717151      1.02284984128368     -5.85246859941468
  O   -8.32490554817530      0.45710015287305     -5.05096285611253
  H   -9.19728824033569      0.73234495117064     -4.65276864932026
  H   -7.82312274749797      0.14485415472845     -2.02536398666433
  O   -7.35044471144883      0.87467906192314     -2.45703459424874
  H   -7.60196188079041      0.84858724563278     -3.39931938476816
  H   -10.98449929518957      0.44935269900356     -3.43273130091464
  O   -10.59944774421024      1.17651501536623     -3.92990853620661
  H   -10.50865870413986      1.93495216691174     -3.29086901865540
  H   -10.25459141859469      4.07973083069217     -2.93846769091851
  O   -10.33912491695058      3.31993194413095     -2.33439243784153
  H   -9.50352341789005      3.32772377247186     -1.81977656701642
  H   -5.76792158272258      7.55587195741309     -4.23833346828236
  O   -6.25803975070564      6.94490736830828     -4.82695878677976
  H   -6.51904919279197      6.19053836345705     -4.24564129218975
  H   -9.66690006828835      6.19338406731591     -4.49437742630210
  O   -10.13698240234829      5.33515133943575     -4.40706901683436
  H   -11.01629558095171      5.52019899036690     -4.74802668628224
  C   -8.66189356696773      3.25638143504130     -7.18823584597599
  O   -7.73853320822066      2.17671204234435     -7.04375257339064
  H   -9.52312225892535      2.87878409271634     -7.73300038930925
  H   -6.97829810574160      2.50121533001524     -6.51721961685294
  H   -9.00241785008906      3.64540533194082     -6.22732151237088
  H   -8.22525542096087      4.07552484259830     -7.76336626054108
