15
Coordinates from ORCA-job grain_mol_opt.QMRegion
  H   -0.51070980721958      8.77305469037234     -2.33276839003753
  O   -0.34977519933335      9.57439686508828     -1.78368735351929
  H   0.41191874956423      9.32410104346870     -1.22360168180690
  H   -1.67667540806414      9.55086756848468     -0.80106410581275
  O   -2.54568364861812      9.46711155817127     -0.33172089494695
  H   -2.99867207255684     10.30991505184778     -0.43723876541069
  H   -2.16090613328192      9.93972531735456     -3.56042879457853
  O   -3.01881860984013     10.36194839816715     -3.67182486834070
  H   -3.09218128896082     10.95660439363783     -2.91011119169124
  C   -1.83292850258863     12.81235733482477     -1.12847046107552
  O   -3.08554895651322     12.11805675845265     -1.25951578068332
  H   -1.05394722938313     12.09428738706903     -1.36147812631396
  H   -3.80208129391710     12.74054764823558     -1.09966553389150
  H   -1.76792307011349     13.64261981461009     -1.83079382310040
  H   -1.68867264790182     13.17976400176753     -0.11265366488035
