21
Coordinates from ORCA-job grain_mol_opt.QMRegion
  H   7.98194177113780      1.05320768976331     -7.09061190187906
  O   7.61309480631627      0.16447634189106     -6.94520529245360
  H   6.65931913306922      0.30601643863203     -6.75861408159433
  H   6.93084687198141     -1.05102793532096     -8.31487964661959
  O   6.36397279350729     -1.78748146754136     -8.61418999035189
  H   6.12451202726838     -2.21669130490539     -7.76949256665475
  H   3.30293015920555      2.89793503873280     -6.64230117855928
  O   4.13920004607667      2.60728669319024     -6.23753205143552
  H   3.89087211686304      2.33397025851461     -5.32522186061729
  H   4.65825213581739     -0.11251230771987     -7.80600528850114
  O   4.89233602157548      0.12705631268645     -6.90345381434485
  H   4.51125427793599      1.01523750375753     -6.75051538909060
  H   6.59084200801782      3.53766310348928     -4.50737383384423
  O   6.64127473580675      2.91366697296598     -5.26850364766546
  H   5.76749212712832      2.99761779332263     -5.69588318171968
  C   7.16277376828091      3.29704230616828     -8.57075447812147
  O   8.09144210981989      2.95740669880349     -7.55018498603199
  H   7.60871869740976      3.02933329875180     -9.52528450972555
  H   7.67578484038823      3.17707115037626     -6.68972916242460
  H   6.21783218880734      2.75537170557508     -8.46562953289633
  H   6.94183116518172      4.36784812037449     -8.58657945632875
