24
Coordinates from ORCA-job grain_mol_opt.QMRegion
  H   6.52677522431237     -4.04543171856096     -0.68716425043859
  O   7.24783170989214     -4.46675794526910     -0.18130981072330
  H   7.75248948474233     -4.88882887677956     -0.91115962504280
  H   6.47926224207448     -5.89501291066689      0.55129408672697
  O   6.18276685102229     -6.59695234438130      1.17292985512469
  H   5.26126701261887     -6.34431675466823      1.38304760801171
  H   7.45463268678877     -2.46316864981976      4.15019667638365
  O   7.75208922089279     -2.58677832494902      3.23081862726695
  H   7.39598429564292     -3.48290553256371      3.03263677762358
  H   6.71352751508437     -5.79227845905515      2.59970392756893
  O   6.96392295693322     -5.20167142334089      3.34569297411087
  H   7.81267198222135     -5.57093482410579      3.68776863564671
  H   8.03466213400069     -2.90980911708904      0.22315472691151
  O   8.48499232219163     -2.08727510735814      0.49565245640934
  H   8.39960003342197     -2.08096179491034      1.45707268157591
  H   9.40267051730895     -3.08372149270093      4.12791995932156
  O   9.87277763574335     -3.45331301582539      4.89962618259207
  H   9.20449763683524     -3.34828502570193      5.59214783515795
  C   10.16261729700987     -6.19524845040709      2.83412984909154
  O   9.44384253113806     -6.01332489540491      4.05091333479584
  H   9.87313194904767     -7.15793379846742      2.42064346304006
  H   9.72162100773646     -5.14971818163933      4.43800793213470
  H   9.92966788206411     -5.41949604512399      2.09909897318674
  H   11.24002332677606     -6.20158213822129      3.00532581316926
