30
Coordinates from ORCA-job grain_mol_opt.QMRegion
  H   -2.35210642612368     -3.61769798283168      1.99949252465098
  O   -2.38231128227859     -4.53006256097970      2.35988485731420
  H   -1.43746537973513     -4.78342100854284      2.47586000690834
  H   -5.04641943398847     -5.96282964960295      2.09802543592643
  O   -4.40017940722197     -5.97584527182942      1.35934316534886
  H   -3.65096150922337     -5.40373286688986      1.61281836984564
  H   -4.35992973782782     -2.47101787762998      4.21462759557213
  O   -5.26836529560992     -2.13100619724254      4.06281798341150
  H   -5.13386534531965     -1.34764889843731      3.47994409464935
  H   -6.01646324520666     -3.08108083252020      1.32032998018165
  O   -6.65390972171871     -3.34229724385565      2.02651669866400
  H   -6.27945800060303     -2.89291278643506      2.81097375187961
  H   -8.19930292031402     -3.59656139670093      0.82609626138188
  O   -8.86238864322301     -3.64634449298831      0.12072941875512
  H   -8.57877797194944     -4.38154154576351     -0.46230334983330
  H   -2.02997022731874     -2.97795683501891      4.66765004355623
  O   -2.90961723815880     -3.40586056927986      4.78606870596037
  H   -2.88263044082848     -4.05356531864732      4.05320404370838
  H   -5.29174503385827     -1.99880751063337      7.06608944030704
  O   -5.96552593933002     -1.51451023359024      6.56857589080043
  H   -5.88031330037154     -1.83502538019205      5.64492136589637
  H   -3.23332037163938     -3.61397282679438      7.97630173006619
  O   -3.60059707275874     -2.98643914438865      7.34965004859082
  H   -3.30566031110211     -3.28484420969588      6.46021230318453
  C   -6.35515162939514     -5.68182630469537      4.51764755527393
  O   -6.41913461859995     -5.81051834010264      3.10543059602526
  H   -6.11194296135923     -6.65801468961026      4.93026376451956
  H   -6.60716753294317     -4.92447395916639      2.71172640871755
  H   -5.58712758127352     -4.97096971558361      4.83306050573690
  H   -7.31289648128454     -5.36427952043555      4.93429666917582
