24
Coordinates from ORCA-job grain_mol_opt.QMRegion
  H   -2.85921749158016     -3.62649382184140     -6.12094287911690
  O   -2.07881138862548     -4.20480044791920     -6.03431826138492
  H   -1.73042766658115     -4.04764721264596     -5.12772775205658
  H   -0.47412852690673     -6.62444078704091     -6.44445685963842
  O   0.08376490046821     -6.71171166582003     -5.64757680737976
  H   0.87726293858899     -6.15888207047033     -5.82394889090387
  H   -5.36972431053133     -5.66430254555597     -5.40270159583779
  O   -5.98500448825604     -5.04042046747784     -5.81375282665527
  H   -5.43654692920121     -4.24681696920988     -5.97796912804000
  H   -2.90454599893643     -5.87332945175507     -5.32160362113987
  O   -3.52702670077787     -6.51501346497998     -4.93920586673659
  H   -3.00091405756204     -7.29130482139924     -4.66606582274320
  H   0.17925200836877     -8.25198114960427     -5.27728219073814
  O   0.04269101528040     -9.21438682655555     -5.00833376568794
  H   0.09911108444908     -9.72018921512601     -5.81996072509307
  H   -0.56285923385429     -3.12181393153171     -6.79146872781253
  O   0.08528974045618     -2.40553600361055     -6.77470536467050
  H   -0.41499610156904     -1.67450314679675     -6.35202187573326
  C   -2.69020904700355     -6.95098512345875     -8.35372598568769
  O   -1.55496751973194     -6.25125209332336     -7.84382339532959
  H   -2.33261599975015     -7.88875236034537     -8.77014314478342
  H   -1.86090112309865     -5.44194599903667     -7.40071656862438
  H   -3.42179053740850     -7.16229889469042     -7.57355428203322
  H   -3.17711165267556     -6.38508273141148     -9.14951959267324
