30
Coordinates from ORCA-job grain_mol_opt.QMRegion
  H   3.30156280214502     -6.20656478204810      2.97774808991914
  O   3.66672688017150     -6.02116128219578      2.06803686192896
  H   2.92672265661309     -5.66522790163337      1.53017563060061
  H   2.29274404849061     -5.66455524147275      4.75254825385071
  O   2.80378705209009     -6.48506772655541      4.51090447242765
  H   2.20448988876123     -7.23793388775338      4.54608348985631
  H   5.59695998691464     -5.39846541602814      4.71431690461155
  O   5.15822494746496     -5.32148659346317      5.58985337511627
  H   4.38052224928610     -5.88943937732742      5.52056317957071
  H   6.51738581660700     -5.88902067733386      0.58894255440977
  O   6.14340388712311     -6.64669238590520      1.09899093753063
  H   5.22660704472921     -6.36271443120807      1.29853863743622
  H   5.66640550924468     -7.86547670424352     -0.08767858110057
  O   5.35027728725091     -8.61043653849946     -0.65180504602384
  H   4.60621994659175     -8.23722004956093     -1.16128506227534
  H   6.70035985826322     -5.89495055978588      2.62432743579545
  O   6.74065517557576     -5.28341115170333      3.38422110604247
  H   7.63088917067498     -5.37634612098132      3.77997538559909
  H   -0.41970037525374     -7.97360459151535      2.18292531929540
  O   0.43177676384357     -7.91301284138058      2.64582340242830
  H   1.09140954401490     -8.24388028671109      2.01916296982721
  H   3.71994217873753     -8.94772297628626      0.60068637528866
  O   3.02576675275431     -8.63553602802279      1.20360414590347
  H   3.32173963625670     -7.73206157275961      1.43558074977356
  C   5.24899688360338     -9.23722811882825      3.79393037072497
  O   3.84220271806797     -9.42895768364297      3.81076454361508
  H   5.58803754895965     -9.17551776652900      4.82491774178617
  H   3.53296306985838     -9.35291042258477      2.89156185217194
  H   5.77543221439568    -10.06784513767831      3.31230731987384
  H   5.53980625483346     -8.31410461226238      3.28653620150094
