15
Coordinates from ORCA-job grain_mol_opt.QMRegion
  H   -10.00830709010763      2.94380076768741     -5.26705408615803
  O   -10.19782614846440      2.07243722879453     -4.88627012481703
  H   -10.21618807820035      2.28423468307215     -3.93153544923521
  H   -9.93368248209983      4.17438073176990     -3.12631867803312
  O   -10.26189708943776      3.50708333296272     -2.48882442038561
  H   -9.53473729600804      3.41860613248092     -1.83960191106601
  H   -9.62449063879971      5.85839059672763     -4.99197347346083
  O   -10.01703091894598      4.97551427449720     -4.83870694452263
  H   -10.97148443275862      5.12159518550940     -4.70449183947355
  C   -13.39999342327904      3.59386334487958     -4.40635719909613
  O   -12.61495943097962      4.60399628067028     -3.77205158641214
  H   -13.85175587638201      4.04496862777083     -5.28601616409096
  H   -12.11943279650458      4.18714770027431     -3.04955390466005
  H   -12.79245703834819      2.74454979753107     -4.72035065333001
  H   -14.20053753997552      3.24245304771300     -3.75066241664853
