30
Coordinates from ORCA-job grain_mol_opt.QMRegion
  H   -0.23354231408352     -3.58615675473163      3.82492891081335
  O   -0.46248696889368     -2.74570203129028      4.25817366102336
  H   0.16344036258875     -2.68254353124504      4.99162404937348
  H   -0.94946601305512      0.73482702629246      6.06670647626003
  O   -0.64767154778673      0.20770230108962      5.30887956781661
  H   0.08773665935755     -0.36757829877012      5.61257124271109
  H   2.04523572333609     -3.56940255892801      4.33505060849611
  O   1.91603064041360     -3.98643763727407      5.21436077347671
  H   2.53543994957180     -3.49769568334634      5.78500091126771
  H   4.49857860649416     -2.24081313804565      5.75548469775988
  O   4.19219258138656     -2.74210671026217      6.54550402597668
  H   4.55178250862490     -3.63869811963722      6.38981680515555
  H   2.03865896413421     -0.74184447633072      5.23121303330555
  O   1.46291213593376     -1.21978269187552      5.86696141258737
  H   1.68360045211945     -0.86418396639950      6.73510310043062
  H   4.31838175975002     -0.68014517097611      7.22037012301250
  O   4.12959815895573      0.24502598670580      7.03567616789187
  H   4.92977332988431      0.62257825433644      6.63716837202938
  H   0.48969447246264      0.57635786764486      8.95809110346395
  O   0.45801297657170     -0.20879492080071      8.39748052707258
  H   -0.49808144780095     -0.37634615641354      8.25583712218388
  H   -2.72637825908055     -1.42839780495165      7.68884219217346
  O   -2.24642453865722     -0.58995170738410      7.82185222862031
  H   -2.87024411426858     -0.02472586629208      8.29062101804656
  C   1.36604150788282     -3.66645242880671      8.81754538897594
  O   0.65053167718982     -2.80644804569771      9.68804434219758
  H   1.41768889226720     -4.64365440950966      9.29374152079796
  H   0.68879493307178     -1.90791015662568      9.32054459051746
  H   0.87022111365787     -3.78808195823694      7.84987720995804
  H   2.39049078016397     -3.32799881289296      8.63721402402783
