30
Coordinates from ORCA-job grain_mol_opt.QMRegion
  H   4.23406937645626      5.63128785689683      0.39078872201031
  O   4.58944067365032      5.72279422445402      1.29500872493993
  H   3.88700641660077      6.24527244783250      1.73200322387953
  H   6.52044846430039      0.95116726387317      5.06837554789319
  O   6.06782436903328      1.48552800416769      5.73300209017030
  H   6.19295664018237      2.40867330263016      5.41307819547596
  H   7.46803806309825     -0.78340661886714      3.19827342755235
  O   6.86606234986567     -0.04528666840035      3.38477462211971
  H   6.10381129306938     -0.54192866266499      3.79962928606816
  H   5.80633797531678      0.08520620544898      0.44038334180818
  O   5.57324942910888      0.74828293185380      1.12593268202879
  H   6.03847711822643      0.43145119182308      1.92610432923786
  H   8.73687538266485      0.97465795073051      0.67564464541227
  O   8.52513851560304      0.52338311103824     -0.16407731619642
  H   8.48222785462434     -0.41901163577474      0.06657149304169
  H   5.33623647735383      3.62554963017539      3.76088883806999
  O   5.98480362150681      3.87469621987120      4.44989985519483
  H   5.53812346753495      4.58947713409555      4.94235946141390
  H   5.88795845081428      2.01677112990869     -0.54843488705804
  O   6.59704370224366      2.16509254155775     -1.18128049162155
  H   7.32476058404750      1.58203263212403     -0.87019098539315
  H   4.54492247907596      4.08327645447030      1.79815013826837
  O   4.39021648602407      3.15606119069406      2.09526187698434
  H   5.09420390932393      2.60391224018079      1.73227972630347
  C   8.36803583871654      3.35950279102873      1.95061328708630
  O   8.74512956874265      2.00026266756962      2.21826101649571
  H   9.24830414052103      3.86081447727984      1.56106288002521
  H   8.05496207857075      1.59474206004522      2.75775782702208
  H   7.58145914345319      3.41393909870919      1.19699463385888
  H   8.04117243756450      3.86513679801885      2.85614253139158
