36
Coordinates from ORCA-job grain_mol_opt.QMRegion
  H   -1.56923142335424     -0.79303320515560     -4.65489904677712
  O   -1.04548224700554     -0.54863157683069     -5.44639183903051
  H   -0.30887610064335     -0.02270926242190     -5.10294313899345
  H   -3.26998644584548      1.60875240167672     -4.13767679551601
  O   -4.13581273114404      1.15284674064363     -3.96302568108637
  H   -4.34127303113654      1.27837457371908     -2.99386838691223
  H   -1.09014436771207      1.60980615195801     -3.92330323594511
  O   -1.76104537877548      2.21337153744139     -4.30334103399651
  H   -1.39436187027447      2.61042534805287     -5.12203366671153
  H   -5.02064442598836      5.83618883976436     -5.60521960273001
  O   -4.43440748083170      5.05072378980482     -5.64792673080921
  H   -3.66745394702702      5.26991836297988     -6.20144930648637
  H   -5.46644645976581      3.55905888268345     -5.60595358546748
  O   -5.98000574692965      2.85319070773424     -5.16690476806991
  H   -5.30868579909494      2.34101433992283     -4.66879777570477
  H   -5.18881807255800     -0.08834448946329     -4.72045672287930
  O   -5.78697483960681     -0.79821383341476     -5.02184819105583
  H   -6.64182401118638     -0.35743900762322     -5.17679383163140
  H   -7.37562749383574      1.70483320962369     -5.29528742214797
  O   -7.93844458540367      0.94020682912579     -5.06482653550092
  H   -8.84909570198189      1.32500140052994     -4.96598557376397
  H   -4.05148563047564     -3.07066689152314     -4.94216703559526
  O   -4.17075496175858     -2.96129429325168     -5.91753453724807
  H   -4.72612415545606     -2.17068696717024     -5.98078479640280
  H   -1.26347627118790      3.85152368636235     -7.02754975925405
  O   -0.76730802606192      3.07160561220238     -6.72282861272529
  H   -1.00347660606328      2.31428159047998     -7.30162903118447
  H   0.01577850517689      0.45457409955457     -8.27355256854289
  O   -0.90368345367571      0.66402388904717     -8.02388107346246
  H   -1.07530951822801      0.14334530213909     -7.21888653241420
  C   -4.27145196835864      0.99941183804259     -7.75681925197112
  O   -3.47672138796218      1.90793049410205     -8.51003105742776
  H   -5.16588948840647      1.53135752493408     -7.44839955388830
  H   -2.65517225612314      1.44619134197849     -8.72281568495641
  H   -4.57385559396352      0.12977268528895     -8.34694765913760
  H   -3.75023166239480      0.65372816854096     -6.86087711786086
