33
Coordinates from ORCA-job grain_mol_opt.QMRegion
  H   4.26696540129199      5.58890753787261      0.25783794914081
  O   4.61945368651688      5.68289344083901      1.16269035543038
  H   3.92790127653246      6.22650307721373      1.59215829216466
  H   6.56280732752611      1.01355608499439      4.82747261861360
  O   6.15099532582210      1.52128907287934      5.54391325840671
  H   6.32136189312336      2.44867466833491      5.28234245254747
  H   7.61162005241225     -0.61258109297395      3.09156417365418
  O   6.89254677880240      0.00819906744209      3.26126894495807
  H   6.19788968848195     -0.59055983455684      3.65273935017277
  H   5.82422949547180      0.02966434749974      0.32736043909413
  O   5.64243563795092      0.74430000590770      0.97309607620659
  H   6.12639612134846      0.47506720743116      1.78539388647984
  H   9.47729452464312      0.03696057627840     -1.15709922075171
  O   8.68550365903766      0.25617972230425     -0.65227103405702
  H   8.50755530403629     -0.55538536701707     -0.14295880407629
  H   5.41089671100676      3.65296326786127      3.60445478713646
  O   6.07928691057106      3.95194129676296      4.25627089460617
  H   5.62811510130740      4.66363685611404      4.75089839048932
  H   6.13620157233862      1.91672959232820     -0.59152089662178
  O   6.71303490017351      2.12905231474008     -1.33846335001226
  H   7.49676314146058      1.57435542242557     -1.15858797557075
  H   4.55820554001954      4.06203938854035      1.68392685602082
  O   4.43306762360801      3.13422858165932      1.99513347404019
  H   5.15036905019347      2.60750842843653      1.62339364742750
  H   5.22794613041670      4.17944081079346     -3.37617818605427
  O   6.18740411209636      4.21807557210001     -3.26180128979032
  H   6.36901467685026      3.64944562581886     -2.49516462707938
  C   7.99711594782134      3.82796804241054      1.39323197279754
  O   8.41714384878170      4.41275009464529      2.61103891126981
  H   8.80727516250806      3.93629797012897      0.67600771841992
  H   7.66558189836702      4.36960064835042      3.22448385231033
  H   7.79393233196190      2.75503191617113      1.49175886855739
  H   7.11603565434102      4.32558596770074      0.97681209102053
