12
Coordinates from ORCA-job grain_mol_opt.QMRegion
  H   3.68997947617192      7.06432360703607     -1.25054285454042
  O   3.90829489663804      8.00798981690820     -1.43973262590480
  H   4.26180209909221      7.95252968361664     -2.34272988046829
  H   4.78773475855334      8.39744958629519      0.06223258576737
  O   5.14403585012131      8.46428068090278      0.97650387651444
  H   5.45913178584905      7.56338668037153      1.15097713164271
  C   6.81380821238876     10.80947214002754     -0.87490745383164
  O   7.21883940435677     10.35897588189554      0.40055697451967
  H   7.58916147829404     11.47254817649785     -1.25436507042694
  H   6.55685884604706      9.71106472787291      0.69985251996014
  H   6.69433098104579      9.99176770612424     -1.59645265870843
  H   5.87524842224169     11.37666941579711     -0.84542222864505
