18
Coordinates from ORCA-job grain_mol_opt.QMRegion
  H   -3.47589938769242      6.39130298402107     -0.47327054713419
  O   -3.27370050414166      7.05572668361812     -1.18382187412836
  H   -3.06533838229305      7.90379874477430     -0.73196939885312
  H   -1.72114826582227      9.64007876658856     -0.69740670599952
  O   -2.54555664414201      9.43686514892899     -0.18564305511525
  H   -3.16691712031877     10.16846656402347     -0.33462299326641
  H   -1.93461428940682     10.31652227098504     -3.03605340460477
  O   -2.83647103706330     10.43094226009852     -3.36252380197792
  H   -3.25525941593431     10.99456976889255     -2.69821684437869
  H   -4.13510413434317      8.92867717481680     -3.36515574450458
  O   -4.87176774775382      8.38172951019867     -3.04662761010154
  H   -4.47452211496135      7.84744158049197     -2.33232362527399
  C   -5.77704831545475     10.87246607105688     -1.00142121305954
  O   -4.43071344696965     11.39269181072323     -0.93649448289107
  H   -5.73755947365889     10.02045634735845     -1.67078738869471
  H   -4.43610430840686     12.19839540993830     -0.41100007134985
  H   -6.12018279704395     10.55345878371315     -0.01737892776821
  H   -6.45829342520153     11.62047657810113     -1.40519458354499
