15
Coordinates from ORCA-job grain_mol_opt.QMRegion
  H   7.51725757308649     -2.45793016582607      4.25101782527576
  O   7.78282140689423     -2.58263116865182      3.32182982832683
  H   7.22537246048721     -3.33518646229852      3.05505020396383
  H   6.35284432688156     -2.18080919833224      6.23117321999457
  O   6.99971337965675     -2.86216970026554      6.00634771204176
  H   6.46748218073669     -3.67380394795661      5.94952825752892
  H   9.15503090019413     -3.85923900146031      3.90746023421663
  O   9.35780022004611     -4.74751121188224      4.25529695180300
  H   9.39828763485316     -4.62480794873554      5.20814220896628
  C   9.76315107609725     -3.78639323753129      7.99749320187105
  O   8.61950520360405     -3.06957231765015      8.41029750130470
  H   10.39388307991895     -3.93261700625825      8.87144291374910
  H   8.03709360106409     -2.97924787504587      7.63979014680007
  H   9.51775713372646     -4.78232499951004      7.60521783908916
  H   10.35570612058788     -3.24548313353987      7.24941141021108
