18
Coordinates from ORCA-job grain_mol_opt.QMRegion
  H   -3.56496869702416      6.34922950230401     -0.50629860848432
  O   -3.36116618136278      7.01589320181134     -1.21750882040199
  H   -3.12029728666313      7.86116305735754     -0.76194337587075
  H   -1.86004174784667      9.63520590155137     -0.75909320472507
  O   -2.67034999103968      9.39025845629825     -0.24768077949279
  H   -3.40458310028892      9.96800256905113     -0.53590120706047
  H   -1.97572979712805     10.21795964379871     -3.15731682968595
  O   -2.85389283186505     10.28156765218199     -3.55618817805780
  H   -3.30828492378748     10.94085239627380     -3.01739740734620
  H   -4.15026801138189      8.80709127266157     -3.42595074825182
  O   -4.91635742027987      8.36510983151872     -3.01536359299917
  H   -4.50690565804949      7.77749215904449     -2.33891033527839
  C   -6.06743624692715     10.78835728089610     -0.50914841057678
  O   -4.92906047316401     10.54137174432009     -1.33241447779688
  H   -5.83339673949402     11.62887103110587      0.13681107910356
  H   -5.12327443281022      9.77343728586455     -1.91865536646480
  H   -6.94056670243417     11.04661521115771     -1.11068023765469
  H   -6.30482072161433      9.92582459476566      0.11705558247993
