21
Coordinates from ORCA-job grain_mol_opt.QMRegion
  H   -9.01179509509489     -1.76593194733314     -2.25300655381040
  O   -8.52563563797621     -1.53284744752618     -1.43903037420953
  H   -8.56458683458282     -2.26388320489319     -0.78348187570910
  H   -7.79904285960459     -3.64776919648307      1.07757460245841
  O   -8.49511467860854     -3.54120818695407      0.40189954167815
  H   -8.37122488945602     -4.30074026942859     -0.19911358617594
  H   -6.86220339955096     -5.20845021236557     -1.32633708087816
  O   -7.79588201128696     -5.45531067011784     -1.54365645369054
  H   -7.87920979554753     -5.10517779592014     -2.45857986524639
  H   -6.98660442023446     -3.44292985380788     -3.42991471773845
  O   -7.60107371949848     -4.05931309001594     -3.88931231948097
  H   -7.05596012600544     -4.49568725635021     -4.58483689131618
  H   -8.79605587008143     -2.66546535231764     -4.27774692880841
  O   -9.35661743357190     -1.90116757871575     -4.04008099516760
  H   -9.02772161387499     -1.16172456971225     -4.56552054393829
  C   -11.32081633918974     -4.34292050343089     -1.75251032449908
  O   -12.72876152131290     -4.56693343527222     -1.71545316902647
  H   -10.85021342070455     -5.31921061622453     -1.82628076586416
  H   -13.15813678361841     -3.70588107586234     -1.70979610997394
  H   -11.02223255241353     -3.75108383455821     -2.62103843638292
  H   -10.95870263901256     -3.86026572949539     -0.84170515476902
