21
Coordinates from ORCA-job grain_mol_opt.QMRegion
  H   -0.75142151353467      8.82594229136573     -2.49209126209196
  O   -0.64195730070055      9.70272389798492     -2.05030979268465
  H   0.03290412793779      9.54697345902640     -1.36942165961439
  H   1.58462297355758      8.37639224067397      0.60283385518489
  O   1.20333400224364      8.73606629903045     -0.22555805587003
  H   1.92472368911234      9.26922860678481     -0.61727890229623
  H   3.80544121168075      7.25530056157280     -1.30256210454274
  O   4.32056844084849      8.04720867514102     -1.55649076452626
  H   4.62581769656685      7.80221438993546     -2.45411423731878
  H   5.17177957252950      8.37764330846108      0.09805395592407
  O   5.29713537162832      8.38950528037768      1.06534413914157
  H   5.51229190809478      7.45965669426276      1.24721149377674
  H   3.53843755021007      8.17521636371970      1.72543230437790
  O   2.71345780213520      7.65721051297642      1.80792633880357
  H   2.31374664877588      7.84720354227179      2.67333999750590
  C   3.63935157170918     11.33735232015047     -0.20465922417481
  O   3.06982357336389     10.51650727648495     -1.22287119205125
  H   2.89069447663860     12.07610758526078      0.07061837969888
  H   3.68901258953980      9.79732647811631     -1.44655965596665
  H   3.90948138640081     10.76493638612542      0.68438884958289
  H   4.52739111068208     11.86477389313715     -0.55897032360463
