24
Coordinates from ORCA-job grain_mol_opt.QMRegion
  H   3.38289900591959     -6.04108038125588      3.29839325784627
  O   3.74359196371529     -5.83854465036866      2.39584338549359
  H   2.99446656142764     -5.50624282343154      1.85303265036136
  H   6.58708944570213     -5.81107064188970      0.85707960693578
  O   6.22454356051002     -6.58614312219056      1.35277101637917
  H   5.30936376679435     -6.31256635195642      1.56212807087523
  H   5.84611038180144     -7.79759451202980      0.15767976970860
  O   5.60389756700905     -8.57848487420242     -0.39557172412676
  H   4.75228024474139     -8.33555442271485     -0.81768150730796
  H   6.79232128846037     -5.79766199392187      2.89187381591612
  O   6.82519173780927     -5.11874277011444      3.58789902046527
  H   7.68909433629967     -5.19310210850431      4.04048231261373
  H   2.36645557421121     -8.14102691004664     -0.67095731282875
  O   3.00045524688935     -8.12905462640355     -1.41095127927634
  H   2.69019939603062     -8.80720407297607     -2.03668691794205
  H   3.24965440256934     -9.05321133522533      1.67921665626760
  O   2.66369125020474     -8.28986754334153      1.48811431391170
  H   3.18536885110659     -7.51881991922809      1.77070245812657
  C   5.60535384065089    -10.05411818290483      2.72081502669512
  O   4.67368383644528    -10.15984786031021      1.64921938055089
  H   5.09963716110035    -10.35112482002530      3.63551645247051
  H   5.07776601114390     -9.72141182287943      0.86616655379837
  H   6.46210538608249    -10.71522462737852      2.57100446505295
  H   5.97262912734656     -9.03297330081331      2.84279954993008
