24
Coordinates from ORCA-job grain_mol_opt.QMRegion
  H   -9.02429803788705     -1.76619556352969     -2.24693470621375
  O   -8.51173197832118     -1.59721678562084     -1.43658497616000
  H   -8.57523100069243     -2.35780326934115     -0.81737208533278
  H   -7.82126406982227     -3.74267546120578      1.02371362769866
  O   -8.52545470018338     -3.66293037731425      0.35250278679623
  H   -8.37859916624157     -4.42003399457856     -0.24346228000914
  H   -6.81587357739426     -5.25063531930602     -1.40183018855451
  O   -7.72819097510271     -5.56381271341883     -1.62562256534830
  H   -7.86478375652832     -5.17547355356489     -2.51228778280235
  H   -7.03096410658394     -3.44180285552183     -3.49898535662491
  O   -7.62191095415783     -4.04149834312403     -4.00982954367059
  H   -7.03665989291407     -4.48087930290616     -4.67073852734583
  H   -8.76416107027100     -2.46117535993554     -4.40632742108430
  O   -9.29082055574880     -1.70644061489894     -4.09516622328392
  H   -8.95126565240313     -0.94026939820997     -4.57637066707527
  H   -7.53657006787745     -8.67571631689060     -1.51469954105807
  O   -6.84615140487068     -8.10835071040228     -1.86706155409952
  H   -7.24033780353666     -7.20388445798790     -1.84992244299826
  C   -11.12468282008845     -4.69279993243651     -3.07105367745859
  O   -10.32188482139046     -5.45108734925047     -3.96563767941691
  H   -12.06302373421742     -5.23000156841853     -2.95306840483211
  H   -9.51616568768491     -4.94851024590284     -4.13754027663502
  H   -10.66596732600528     -4.59688830264182     -2.08184377364115
  H   -11.34637855485489     -3.69480558596451     -3.45673349755341
