30
Coordinates from ORCA-job grain_mol_opt.QMRegion
  H   1.66003050969393      3.48240049119430      6.77836576993193
  O   1.09905244185722      4.07676746407888      6.24746367107169
  H   0.27531936708169      4.21117257541647      6.77007523444663
  H   -1.78221730570151      4.63077225514718      7.58089180694138
  O   -0.86737344468716      4.73696779106098      7.93699296349839
  H   -0.71978592302645      5.70404086366812      8.01515601693572
  H   -0.13099164662798      3.47607497413941      8.96352944036206
  O   0.12871512753301      2.57277995525844      9.24796962187104
  H   -0.67495397716940      2.28281146135993      9.74393818266940
  H   1.95787622490169      2.13829902624185      8.36924752423725
  O   2.70320781119551      2.34222942268545      7.78631993356685
  H   3.12317803071463      1.47557736777472      7.60261491450284
  H   4.13434818782722      4.81269165580542      6.12051504868781
  O   4.20661153379681      5.53671531766125      5.48691298219391
  H   3.60779878171779      5.24495276636090      4.74778362052806
  H   -0.03907320596976      6.40503098546302     10.64955580601240
  O   -0.95394765883655      6.72854171447637     10.59811170192412
  H   -0.97943416094460      7.13491538646331      9.71848919871166
  H   0.56296596000512      7.37756061107763      7.54869966952474
  O   -0.36046112255699      7.43066395266580      7.85747446017104
  H   -0.84825416525923      7.38018509996136      6.99632544016454
  H   2.75631638281153      6.69536507696488      6.03920051940058
  O   1.79674770047459      6.77509092598999      6.18247282708044
  H   1.50396353667278      5.84113690045090      6.08530797238073
  C   2.58051453599982      5.25268826669486      9.66651637284094
  O   1.90855868232934      6.28237434495600     10.40031576708929
  H   2.21868818336306      4.30668542593214     10.05305436688053
  H   2.23816800041406      7.13380412288366     10.09562467269915
  H   2.35933988456220      5.31141985811385      8.60117490990727
  H   3.66099034069748      5.29485256629218      9.81171835171886
