30
Coordinates from ORCA-job grain_mol_opt.QMRegion
  H   3.36358633567214     -6.01562797756783      3.12213910300617
  O   3.80256345886137     -5.79992722518057      2.26056888187344
  H   3.08526668035498     -5.45929387284178      1.67959558742125
  H   2.35124551404359     -5.50724491502237      4.88038007376808
  O   2.65747770981276     -6.41952423764371      4.61354256370813
  H   1.83880891376995     -6.90049956744553      4.41747868531493
  H   5.67955613255122     -5.20104783909146      4.88352099164579
  O   5.24051077306459     -5.11522922024348      5.76128031575610
  H   4.45265325599457     -5.66277947710227      5.72425214507139
  H   6.67579163389580     -5.70899748731561      0.77530365710434
  O   6.31654791885221     -6.44016739320593      1.33200433748544
  H   5.37870511599508     -6.19643765962381      1.46665340194922
  H   5.88914218739716     -7.78584004908296      0.12539935031708
  O   5.64598492300603     -8.54169545165178     -0.44316985526417
  H   4.79686612149140     -8.28113145905748     -0.84865825873659
  H   6.80746893522346     -5.64736411519478      2.81257409942665
  O   6.85002342780110     -5.05597497003782      3.59356927067652
  H   7.75337018506176     -5.13211518041309      3.96096799403660
  H   -0.29901410608589     -7.82113378352097      2.53120735120238
  O   0.53528819706373     -7.74988474513883      3.02308475067169
  H   1.24887272641038     -8.01040612856607      2.39085682136420
  H   3.24169992591644     -8.96376910204786      2.02709272168908
  O   2.69967732268993     -8.37354882770583      1.47375949070184
  H   3.19096607974693     -7.53877726780167      1.55908077730526
  C   5.74212201945560     -9.22447452537472      3.52612889876995
  O   4.31209031018772     -9.26149948373732      3.62132297802266
  H   6.03707052935042    -10.06375468008991      2.90517737192558
  H   4.03247767278528     -8.54271890220897      4.20058133550461
  H   6.09540610758355     -8.30825837782289      3.05616160259592
  H   6.20563143871076     -9.33391214451549      4.50749121836504
