30
Coordinates from ORCA-job grain_mol_opt.QMRegion
  H   4.26788898900070      5.53199503439408      0.28564300719847
  O   4.67512244112550      5.66628520383007      1.16372532728618
  H   3.96636668385060      6.12790018681536      1.64778427613714
  H   3.97873149488991      3.90564845716379      7.13739790860450
  O   4.14627839788693      4.60112720871490      6.48803490945268
  H   3.45375671487683      4.49452560278004      5.81865492138113
  H   2.67530816239529      3.62699020635835      3.92155032193211
  O   2.58883820324912      4.58570232860414      3.81443452329719
  H   2.43438258531151      4.69904216520418      2.84989372538976
  H   5.28299333881915      3.64426029823295      3.60226021260731
  O   5.94202704101350      3.93550985776469      4.26255667658323
  H   5.39670140645127      4.27675217023305      4.98556966044025
  H   2.62718577029261      6.94905527653369      6.22321502479711
  O   1.66428716019480      6.76586541853787      6.19439232569149
  H   1.54842339201842      5.80041792559030      6.11838351263514
  H   4.77690483248532      8.60040834365573      0.00093917709527
  O   5.14312904094168      8.62404157564171      0.91060800572688
  H   5.49972390481846      7.72821431254804      1.00477686785433
  H   0.25175900040146      8.76538179119811      4.13610540355469
  O   0.96455215340998      8.14553386064715      3.92828791687345
  H   1.12348154150142      7.61003468864169      4.73919031078889
  H   3.58294466826674      8.25315316826084      1.76906397803803
  O   2.80115954055029      7.69218085737491      1.95227367528531
  H   2.30593116218757      8.04254707934005      2.71846126606044
  C   4.87627593844820      7.53198107874901      4.82594522143384
  O   4.37069716707804      7.36778033575946      6.15754495394239
  H   4.59733510754769      8.52811397465043      4.49725286177021
  H   4.60587007216548      6.47354194579228      6.44978235485107
  H   5.96311092051615      7.44978172252221      4.80220869812229
  H   4.44818654723761      6.79813570076980      4.14494357843607
