30
Coordinates from ORCA-job grain_mol_opt.QMRegion
  H   8.82940862347705     -5.00863970386431     -2.91751344144579
  O   8.14846695500337     -5.42755267784143     -2.33930424696431
  H   8.12235476290958     -6.38002714735049     -2.50379977270561
  H   6.49003021014260     -4.03230197620973     -0.57622867869558
  O   7.18995998867365     -4.42049963624126     -0.01562068753829
  H   7.73979304875329     -4.85514811982105     -0.70391485493883
  H   6.43175251438417     -5.90272217378905      0.72535072949428
  O   6.16062443182912     -6.63581471858944      1.31854857514023
  H   5.24957365341270     -6.38238089783372      1.57480373912504
  H   7.38603975181991     -2.47760300191908      4.24375682032248
  O   7.34020528091517     -2.49680412887712      3.27172820037199
  H   6.99584975041298     -3.39464398441633      3.09222463333396
  H   6.75124432583222     -5.86939201570503      2.79883372555921
  O   6.82329029352443     -5.16228996465512      3.47090172939103
  H   7.71649696044337     -5.20010480960053      3.88808780146403
  H   7.96596010612232     -2.90492014151157      0.44230612571325
  O   8.40897727904523     -2.10594552987423      0.80519792145201
  H   7.99656264587351     -2.02339648613138      1.69066130564508
  H   9.63724583285715     -4.27325893743343      3.85203026054339
  O   9.22842498322820     -4.76402510181835      4.59791234404804
  H   8.93818816376169     -4.08495459916350      5.21948131481928
  H   9.69196453024162     -2.13455565755560     -1.00468195110962
  O   9.93213234548820     -1.82880031180579     -1.88825614087574
  H   9.07362356541569     -1.54992824648958     -2.28275615871842
  C   10.71181803011721     -4.68421718119517      1.33891645883723
  O   10.34669382435578     -3.65667102263345      2.25236356435756
  H   11.42153091041201     -5.33462651776515      1.84126470720792
  H   9.72401255666881     -3.06493356831601      1.78598987715936
  H   9.85276046245832     -5.28575048309438      1.03101179468841
  H   11.19420573279705     -4.27685525637999      0.44737480373039
