42
Coordinates from ORCA-job grain_mol_opt.QMRegion
  H   -3.05737492974700     -1.83238160213656     -3.18401000936820
  O   -2.63570607628446     -0.94221329160967     -3.15353480203183
  H   -3.33666075977626     -0.30103200144078     -3.41065166447515
  H   -1.64583495365611     -0.75598890597374     -4.67253567423867
  O   -1.18769696268719     -0.51163733185616     -5.50845058410374
  H   -0.48523673123528      0.10123926891890     -5.22879375573545
  H   -3.41285485200091      1.61724182078571     -4.04656008423887
  O   -4.25676228113883      1.14692879828799     -3.85143335276241
  H   -4.44481849866882      1.29284575989577     -2.88766258573737
  H   -1.15321790692937      1.58421065120376     -3.86681441542706
  O   -1.83006347138673      2.17647851490915     -4.25709942632024
  H   -1.48567312007100      2.53896299334227     -5.09844108236919
  H   -5.54557479034634      3.47011069969336     -5.50165405463257
  O   -6.07904675575761      2.76985893772244     -5.08395753728226
  H   -5.41614901956536      2.21214420624264     -4.61400797780925
  H   -5.29949020359128     -0.27365890583439     -5.06599872937442
  O   -5.98294991050545     -0.96233102717406     -5.04006605789589
  H   -6.82579322245114     -0.47860473014321     -5.14262416085627
  H   -7.46732855936708      1.61848467665764     -5.21513492125921
  O   -8.03693075879564      0.86003732245183     -4.97809572026251
  H   -8.94296959209441      1.25263644508548     -4.87465592007658
  H   -4.16707294610032     -3.12303603565927     -4.89743135010305
  O   -4.29735737625585     -3.02809559567084     -5.86912009095180
  H   -4.93482683246194     -2.29285589772771     -5.92427382123217
  H   -2.75183231789334     -3.99959346082345     -6.14750963871072
  O   -1.98179696934165     -4.54771398682197     -5.91519416612338
  H   -1.72825187817919     -4.26108849858429     -5.00657613161276
  H   -1.38349286373564      3.76555964819695     -7.01468205604707
  O   -0.89135246867699      2.97199636065188     -6.73847835658719
  H   -1.08719528878471      2.23487090911215     -7.36021120615973
  H   0.04398543234849      0.51857546800075     -8.42010516165037
  O   -0.90273197889907      0.69033482224634     -8.23662749988723
  H   -1.12014339520383      0.03172096179363     -7.56491136929970
  H   -0.57001981543772     -3.36297897611489     -6.68071849693350
  O   0.02627970218023     -2.60174072946468     -6.75884897231740
  H   -0.46927310622958     -1.87103886020319     -6.34146365508402
  C   -4.14604224853666     -0.00532683236787     -7.86287245458965
  O   -3.87382963850947      0.42379452540651     -6.53403989569667
  H   -5.20424713079596      0.16342244730370     -8.04060745061497
  H   -2.95550162842929      0.21849473270356     -6.30885588553679
  H   -3.57551844045852      0.56164030845639     -8.59848283605359
  H   -3.93628728593178     -1.06827895961484     -7.99877612112439
