30
Coordinates from ORCA-job grain_mol_opt.QMRegion
  H   -0.08448308378802     -3.50955253225091      3.78947257279584
  O   -0.40828245457903     -2.70484288517746      4.22560033109381
  H   0.27077039006369     -2.50373558373710      4.89347742409178
  H   -2.44525793048497     -3.62692420519069      1.81977132661269
  O   -2.47996704692484     -4.51926983861871      2.23590961722696
  H   -1.54681968377844     -4.82319470964115      2.27524663284848
  H   0.73421306634690     -5.04123090513861      1.88724052665899
  O   0.17146822613520     -5.14446023266843      2.68494040077077
  H   0.32463735756664     -6.08513543093822      2.90646616882362
  H   2.14099490248157     -3.56261806287894      4.19901726462640
  O   2.08620071412118     -4.02703055180574      5.06001774550421
  H   2.60736151556887     -3.47003277437206      5.67157823122344
  H   2.45130398565578     -5.57868293523988      4.81196422279727
  O   2.81756194792890     -6.48419649795376      4.60668752076442
  H   2.07167323147825     -7.07053792081546      4.45673624174273
  H   -2.08702902763991     -3.04022115205564      4.59641506909573
  O   -2.92909058734843     -3.54597540844346      4.63460611646790
  H   -2.90038589864931     -4.02722034512634      3.76889698927293
  H   -0.19361552051282     -8.08180299973305      2.35439092426539
  O   0.62610931763843     -7.88374636344972      2.82748328868148
  H   1.34957036058979     -8.13511106718106      2.21780877324459
  H   -3.38970003914961     -3.66557943665210      7.66202835424442
  O   -3.68731165169918     -2.87506010096436      7.20123930495233
  H   -3.51311799615973     -3.08516362548960      6.26538476021317
  C   -0.83378144970552     -5.79572443672904      6.59994823571131
  O   -2.20199750490792     -5.41818465890470      6.65526500089040
  H   -0.58515443842603     -6.27916695988715      7.54082356468478
  H   -2.40428578922033     -4.92517816108600      5.83906346391577
  H   -0.64271348584542     -6.51333868450665      5.79472648352425
  H   -0.16848999469666     -4.93950846531433      6.46810291356665
