24
Coordinates from ORCA-job grain_mol_opt.QMRegion
  H   4.82565408697682     -6.31387449342759     -2.20897444250303
  O   5.18570874754717     -6.65092376617817     -3.06528966499924
  H   6.13296026232291     -6.75657472604916     -2.93570238116551
  H   5.77654151571542     -7.98133276825176      0.23747262927437
  O   5.51651476403777     -8.66006364438423     -0.42565568984739
  H   4.65738262921248     -8.34680260436615     -0.77107403273910
  H   2.13939616994023     -8.05698795858070     -0.75139946487423
  O   2.85034326119191     -8.08233835659092     -1.41688706981576
  H   2.55179303548492     -8.76623778610735     -2.04995305155172
  H   6.79335972953582     -8.42883296467816     -1.59738915199553
  O   7.50240723427041     -8.29212299723294     -2.27747271493316
  H   8.30503457990989     -8.62523429639350     -1.86699038816808
  H   2.46511498556969    -10.64180177545679     -3.56333636078753
  O   1.97698189728099     -9.83334066844762     -3.32115463353648
  H   1.19470432661065     -9.74024389891878     -3.90212976006178
  H   4.05733970892528     -7.53978494670817     -4.23263393142831
  O   3.31055999108649     -7.75008636584692     -4.82460932733390
  H   2.89242253684010     -8.51367757276417     -4.39804167964949
  C   5.11586300701978    -10.88381659984669     -3.67186383276771
  O   3.94831433541186    -11.72031467066238     -3.77738986754259
  H   4.99270300421045    -10.09109951036982     -4.40113847970321
  H   4.02523719378971    -12.42369410904775     -3.12545626751070
  H   5.21270963537189    -10.44676730337741     -2.67894146352806
  H   6.02016449218306    -11.44252136760120     -3.91193715774628
