27
Coordinates from ORCA-job grain_mol_opt.QMRegion
  H   -3.97014070392696      5.73305816692467     -2.39553252955187
  O   -4.31815731672100      4.94092467162705     -2.81413935184354
  H   -4.11547771658615      4.97457700197170     -3.77901821621847
  H   -5.16944146986009      5.59213264601703     -5.54654352632412
  O   -4.54293798482096      4.85142143418459     -5.49501773330735
  H   -3.75233316839666      5.05777967842487     -6.04943120610930
  H   -2.24545341221098      6.37906998583794     -6.64304146054835
  O   -2.18914992997345      5.41652330402451     -6.56475016224443
  H   -1.82868870530271      5.27838271727116     -5.64049114258125
  H   -1.90625081046538     10.25784515254808     -3.06003247865197
  O   -2.68259771612682     10.29134975422187     -3.64038695105115
  H   -2.39296762360308      9.85988007291729     -4.45607444758202
  H   -6.02932371150591      7.25857029706633     -4.18029792234165
  O   -6.56247204690899      6.65353605725496     -4.72175067341177
  H   -6.77900501529372      5.89929942879866     -4.11112836761598
  H   -3.99876218019655      9.05969802809857     -3.34277413527201
  O   -4.52424328078927      8.23039702229505     -3.33298064839326
  H   -4.17266239936675      7.76391399417204     -2.55392441470054
  H   -9.38498982949679      7.75351929399465     -4.06546661195994
  O   -9.20170873930792      7.32551284607083     -4.90693962360324
  H   -8.23024030128431      7.17822543932525     -4.89862602432049
  C   -4.32229190389794      8.60371357820467     -6.76407217484743
  O   -3.24521427309053      8.16170664598556     -5.93289151055581
  H   -3.88763833864567      9.04017637509424     -7.65850137813665
  H   -3.62662879252027      7.91012235845978     -5.07231697395318
  H   -4.97336433405062      7.77849758664361     -7.05870631159129
  H   -4.92830814180550      9.36253199790442     -6.26683589642118
