39
Coordinates from ORCA-job grain_mol_opt.QMRegion
  H   3.50210173815236      2.65674890936349      0.39252009515679
  O   3.30442451409045      2.68586815554551     -0.56033024409038
  H   3.56090730456423      1.80612689058619     -0.90245646213234
  H   4.22212540463007      5.62037841552915      0.33803305882792
  O   4.54111029198854      5.74338608273363      1.25156996258683
  H   3.83714647146331      6.30646559635030      1.63819090301249
  H   6.48993497310680      1.01296449752382      4.84797190138824
  O   6.10171539343717      1.50707324056116      5.58901029669020
  H   6.26747557595133      2.43808282452153      5.34119353428328
  H   7.57183213516082     -0.54114935881651      3.11578077090808
  O   6.83427922429899      0.05365504325487      3.29339469327752
  H   6.15590185103821     -0.56714544009480      3.67170659000240
  H   5.77669038923951      0.03643930542048      0.37452304075262
  O   5.56413179500633      0.78033489180078      0.97159765938186
  H   6.06462134256947      0.58479726457098      1.79187312072883
  H   9.46247460219290      0.03497353080277     -1.13799571124970
  O   8.68121433974594      0.28427470988439     -0.63044882357620
  H   8.49468946913558     -0.50628001103544     -0.09327210814620
  H   5.29120364843346      3.64812908541643      3.71675583895060
  O   6.01207583182666      3.94280530355052      4.31956915707933
  H   5.61265853649349      4.68244668969815      4.81343135098822
  H   6.13880811483444      1.95054895624178     -0.49997983172651
  O   6.69717234449793      2.13204103562064     -1.27300231065243
  H   7.48035971333858      1.57420205015336     -1.09693740181667
  H   4.44653211999334      4.15107192096135      1.83277267501669
  O   4.43746460388642      3.19623614925343      2.08018979178956
  H   5.30827608377853      2.89422906735378      1.77957395249351
  H   4.69720178571257      8.61358616349809      0.08430073843203
  O   5.04177298137621      8.69136144411486      0.99826233880629
  H   5.46778957937242      7.83343318754946      1.13009038865042
  H   5.22111969287450      4.21047309274370     -3.29316647029961
  O   6.18005399629239      4.24046178239227     -3.17078629873476
  H   6.35037319393899      3.64436992633011     -2.42115492967174
  C   7.92605692204495      4.32977650841515      1.05525449352654
  O   7.34173216008800      3.34024110391688      1.89533262818149
  H   8.08475173739498      3.87295845141019      0.08504699073221
  H   7.17789817080248      3.74477725317232      2.76249905260976
  H   7.26852528549948      5.19339469590138      0.93338675524209
  H   8.88912256193876      4.66919289997582      1.44300800362400
