30
Coordinates from ORCA-job grain_mol_opt.QMRegion
  H   4.27091544327104      5.64676979758659      0.26216736991308
  O   4.59832609305181      5.75297167645476      1.17446227669768
  H   3.88351808645119      6.27938367488472      1.58505642805219
  H   6.54853259335437      1.04563140884180      4.76293789586140
  O   6.15670522451049      1.57436694627758      5.47658386239874
  H   6.30790548572097      2.49499524867538      5.17947310157662
  H   7.58200045360474     -0.63756493249925      3.05719696169603
  O   6.88702076498721      0.00801216916591      3.23583973978398
  H   6.18236029398816     -0.57158934199085      3.63379372487758
  H   5.78992207072826      0.03073236869645      0.31221058826558
  O   5.59251996874534      0.75939632033868      0.93324065869402
  H   6.08357958803159      0.53439313594127      1.74845418307671
  H   9.48888132789420     -0.00220289580987     -1.22705218536054
  O   8.72074680605827      0.25983141673194     -0.70529678490376
  H   8.51835471638932     -0.53826743648437     -0.18424660363604
  H   5.29251423605366      3.69142107593651      3.59268754962263
  O   6.02483163236902      3.99768561689241      4.17201981988721
  H   5.62328056088070      4.71479971253742      4.69688750968792
  H   6.17021023027204      1.96638202461098     -0.52724596227510
  O   6.68173184968085      2.11881104726703     -1.33543852989056
  H   7.49363467500485      1.60759041189906     -1.19401704432549
  H   4.48952092738435      4.12829754288746      1.65615389700227
  O   4.40700840658717      3.18612689738893      1.93461389483296
  H   5.24470542188373      2.78497277446389      1.66124905874391
  C   8.59561417296942      2.81570377738463      1.77530430307483
  O   7.28419270402040      3.35637235426360      1.71031763020326
  H   8.69178007272962      2.07289235032906      0.99051009923279
  H   7.13105262111399      3.88635832236887      2.50717359586310
  H   9.35928946374973      3.58204342290905      1.61999537575841
  H   8.78707546223773      2.32187504514021      2.73072200222663
