30
Coordinates from ORCA-job grain_mol_opt.QMRegion
  H   8.80121993760584     -5.11203139291448     -2.89005458130077
  O   8.11497316860686     -5.53319977340788     -2.31764021960530
  H   8.08495240629563     -6.48590302022924     -2.48185351278299
  H   6.43506860678063     -4.16843447519269     -0.46232922481817
  O   7.18269130332702     -4.57280585237385      0.01485791227571
  H   7.68058385876815     -4.97415724704404     -0.73643506992987
  H   6.39901441900115     -6.04852418321752      0.76019057969773
  O   6.09327359995564     -6.75842735412295      1.36258924943166
  H   5.18369100964347     -6.47530953118220      1.59326645833911
  H   7.51842578565854     -2.55734717826662      4.28867175758414
  O   7.56091746161129     -2.55441889337393      3.31599282965770
  H   7.05107063384601     -3.35123845385319      3.08712811096675
  H   6.64819643904528     -5.97533017454077      2.85721000151261
  O   6.74034684822826     -5.22747923718344      3.48074369129033
  H   7.57078859286441     -5.35256388739382      3.99512397059891
  H   7.94034099262843     -2.91401076839919      0.36847906667453
  O   8.48877891314304     -2.15681488565671      0.64157121868125
  H   8.42872687021133     -2.17167035944426      1.61057652664274
  H   9.49831524208476     -4.78988454719321      4.00421378900008
  O   9.07422947953157     -5.06944088626055      4.83288153748646
  H   8.85443235323444     -4.25531116434154      5.30307255804441
  H   9.69742466230902     -2.21340826318836     -0.99235424892500
  O   9.94743607754971     -1.94907697382429     -1.89084279776242
  H   9.09703942889296     -1.65135622821328     -2.28563578179459
  C   10.46681518083370     -5.18146366486378      0.93739480847182
  O   9.52441602696603     -5.09945613356696      2.00079212809617
  H   11.41686427096761     -5.48039330517701      1.36977090318255
  H   8.66984812832013     -4.85304687481621      1.62510869668466
  H   10.17601748920859     -5.92874418455225      0.19542626042751
  H   10.59884520044552     -4.22108947733330      0.43784076587049
