27
Coordinates from ORCA-job grain_mol_opt.QMRegion
  H   4.90876423435350     -2.27262680348768      3.57467348820532
  O   4.95726156058091     -1.55704926631006      4.24169005387912
  H   4.12375351636738     -1.00946206367255      4.11907476341704
  H   3.90965762308354     -1.03878510886941      7.01056367486247
  O   3.86353165181223     -0.08164613769040      6.90839583442596
  H   4.72264457507262      0.22465697627723      6.59104285280314
  H   6.34023252237002      1.09597973035416      4.79777595561403
  O   6.05830710258555      1.63321668085182      5.57406203414910
  H   6.21782210325885      2.54666484583252      5.22627590289594
  H   7.67598675479387     -0.10662217769839      3.68047661552440
  O   6.79171748561122      0.19147678938331      3.41207314083462
  H   6.18179378736665     -0.54962712264013      3.64325041275637
  H   7.35449088457860     -2.61432614712217      4.07243877127811
  O   7.65839759327969     -2.88631113242326      3.19265828803187
  H   7.12068848369776     -3.67973783585440      3.01048393765200
  H   6.21783643068283     -2.70486326780509      6.31710213599333
  O   7.14910890512442     -2.74064522663042      6.05082515207309
  H   7.40138007817682     -3.66360017429288      6.16431706981494
  H   8.96213212803507     -3.98169974103371      3.96069566989628
  O   9.15467567189147     -4.78325102263913      4.49174519090843
  H   9.95912225790580     -5.15740109722090      4.12314582218087
  C   9.32600668423386      0.46482982041367      5.92805886473459
  O   8.91745729547099     -0.62412958308501      5.09846668438016
  H   9.91167504054945      1.13839017109296      5.30874859012333
  H   8.40737652286735     -1.24403003486987      5.64226706925925
  H   8.47116578323759      1.01307228432285      6.32409393532506
  H   9.95281409545759      0.12132659439175      6.75310889240033
