27
Coordinates from ORCA-job grain_mol_opt.QMRegion
  H   7.63265403945335      0.96711742892517     -6.21186117117959
  O   7.36750698968247      0.18295295052080     -6.70810358551829
  H   6.37628530811082      0.20341717385381     -6.67935715426086
  H   1.90739617749694     -0.15791347914378     -7.51989066399633
  O   1.62433209043452      0.33033042515688     -8.33030947931780
  H   2.27133888986224      0.07489703929029     -8.99579923459663
  H   4.79042610395022     -1.51296155726975     -9.38679005758556
  O   3.86942272581517     -1.39759274583560     -9.73512064074732
  H   3.83099458605510     -1.93891555300918    -10.52796189748960
  H   6.88013320737847     -1.11683150347013     -8.37708755527110
  O   6.32049564795922     -1.85790852148011     -8.64712927536332
  H   6.06107066574277     -2.25136986788467     -7.78914443176736
  H   3.30568720463415      2.97970254307181     -6.62950653093262
  O   4.15748982905781      2.77197439857993     -6.20179281747416
  H   3.91235458841212      2.48894576049302     -5.29597415989854
  H   4.80910686509048      0.52574269896674     -8.03485097165993
  O   4.70740541629466      0.27265903530359     -7.10160514344365
  H   4.42276708844980      1.12484155505520     -6.70642681069089
  H   6.72243389770844      3.40021064285367     -4.50191782127054
  O   6.80258895290139      2.76281644388039     -5.24844520533305
  H   5.98202017986216      2.90763386153832     -5.74856776236681
  C   6.29907031838323      2.48739709983368     -9.29260481464772
  O   5.27098671022309      1.53585870236529     -9.58824886570648
  H   5.88884897378769      3.16425978085591     -8.54975641216533
  H   5.57698682044193      0.95218210410414    -10.28998551753874
  H   7.18555801526385      2.00847767119216     -8.87629426347702
  H   6.57489152638314      3.06703342156707    -10.17450996868180
