30
Coordinates from ORCA-job grain_mol_opt.QMRegion
  H   3.38586621814875     -5.95372915309062      3.22161432135927
  O   3.80599148546715     -5.75592373829940      2.33999752233441
  H   3.08211070226261     -5.42382402958083      1.76332098639882
  H   2.36957017271721     -5.39417403192984      4.95720145980588
  O   2.73858071777603     -6.29064682514274      4.71073673351404
  H   1.95654452424345     -6.84112088592838      4.56980922422805
  H   5.66304519631041     -5.10518749608514      4.96351585159681
  O   5.21720356176858     -5.02097685042363      5.83660797628663
  H   4.44952221020995     -5.59842511718021      5.79609088296746
  H   6.67124303651447     -5.70534347457836      0.89618188693976
  O   6.30766882259426     -6.44165309369911      1.44563353041139
  H   5.37584927983472     -6.17694435982409      1.60048833309310
  H   5.90309823637266     -7.70259803993762      0.24764458982939
  O   5.66196276399812     -8.51503390235891     -0.24776366016126
  H   4.79432105103928     -8.30604404408199     -0.64388822781721
  H   6.82329563758813     -5.61305987046612      2.91665388946194
  O   6.84397252585326     -5.00536770920375      3.68234063017315
  H   7.73995877940599     -5.06674767448655      4.07338275428605
  H   -0.28197573162228     -7.79921084032916      2.61898702838580
  O   0.53288148536945     -7.70230569044876      3.13624643566701
  H   1.26827920292568     -8.00575921775875      2.55412801301192
  H   3.42361573142932     -8.92495822982311      2.06500934614440
  O   2.76062175455615     -8.33911398693580      1.65239136711394
  H   3.20117498334537     -7.47558956649386      1.73629457436658
  C   5.57733193372989     -8.75395448629997      3.97865697608525
  O   5.08340259882542     -9.43894260102867      2.82420705100173
  H   4.83357681025439     -8.86756081208575      4.76170745265723
  H   5.64513727023225     -9.22506303642349      2.06694941988158
  H   6.51938841538688     -9.18161605147756      4.32680208466654
  H   5.72534144568253     -7.69279227628897      3.78993109131421
