24
Coordinates from ORCA-job grain_mol_opt.QMRegion
  H   -4.66438853616739     -5.09529900415575     -1.31066360852449
  O   -5.37881767789656     -4.81185129716535     -0.70567304727238
  H   -5.04361458647834     -5.10793301179095      0.16253192876606
  H   -5.02988031758966     -6.16862442751249      2.10605905677570
  O   -4.24257606730071     -6.14231874511509      1.50906838366873
  H   -3.63521083039053     -5.46063165366596      1.87640507310364
  H   -5.99150954373976     -2.98130622036236      1.48628083657447
  O   -6.61260986303002     -3.32135732348069      2.17414890806012
  H   -6.27171850211384     -2.92181194599489      3.00083530630596
  H   -8.24465801112034     -3.34761437528657      1.10295815878068
  O   -8.95186738034785     -3.41105106783195      0.44105908217057
  H   -8.71117496757596     -4.16160194517071     -0.13517216617956
  H   -5.54034844315994     -7.82741949872848     -1.24833151976659
  O   -5.12643611803443     -8.10506642321892     -0.40248987958548
  H   -4.92880940638934     -7.28616279919821      0.07651092611496
  H   -7.03907477323404     -5.11553469928978     -1.15453432409727
  O   -7.95321513139445     -5.34730140646594     -1.43582235153356
  H   -8.05073944957938     -4.88647391363656     -2.30175393220514
  C   -7.69996853268089     -6.66320293413736      2.21040107717289
  O   -6.58053859734260     -5.98601554961758      2.78852348770487
  H   -7.59295727026575     -7.72067898884642      2.43339897533891
  H   -6.65658195810409     -5.02554803843611      2.59089698345945
  H   -8.63552386410749     -6.30751585768722      2.64300089233982
  H   -7.74213367996344     -6.54132887891503      1.12782627418873
