12
Coordinates from ORCA-job grain_mol_opt.QMRegion
  H   -7.51613507711507      3.84042096116282     -2.04390686189884
  O   -7.84076913953659      3.25964840344021     -1.31643872777391
  H   -7.65706361993603      2.35029613207538     -1.65327285336571
  H   -10.35620935830697      4.20012282680658     -2.89215874851306
  O   -10.44327319203165      3.48583468992968     -2.23565433310589
  H   -9.53920174917305      3.40499297102135     -1.86206983320505
  C   -10.75197588748100      3.83986314398611      1.20619862430685
  O   -11.55922682916555      4.47971871317160      0.23653472992047
  H   -10.97764231910369      4.28981821374427      2.17149446995820
  H   -11.29596083000454      4.13227196949462     -0.63352427389590
  H   -10.95728855985871      2.76501493487966      1.28046840140047
  H   -9.68263068636342      3.97224733860537      1.01457548525902
