42
Coordinates from ORCA-job grain_mol_opt.QMRegion
  H   0.11087420928412      5.71592599221545     -0.67187517326778
  O   0.61163492495668      6.40320513985997     -1.17189056416830
  H   0.75347707763675      7.17359264323627     -0.57742572866479
  H   -0.44150008910805      6.92280396738314     -2.28926037841345
  O   -1.15539982267391      7.31944619427622     -2.85883873209467
  H   -1.94794874395863      7.22711024944113     -2.28554216985266
  H   -0.83814627703252      4.41486056270833     -4.05799920268937
  O   -1.54942601835650      5.04468157195644     -4.29896497796684
  H   -1.36360604654195      5.86233855168073     -3.79269028524685
  H   0.69702654045267      3.09329735124289     -2.70426265734293
  O   0.63476297883268      3.40195092127224     -3.63093093960681
  H   0.72708326988442      2.58311743274910     -4.14122541355427
  H   2.15382787189212      5.79406744772629     -1.10187673774760
  O   3.09036757932420      5.51993064705377     -0.95690509109218
  H   3.27326993876006      4.83355950793433     -1.63878891765002
  H   3.45685975980188      3.36295662613434     -3.39343683749924
  O   3.61530723805206      4.30639276319174     -3.17245530887067
  H   3.01037418974570      4.83305688456860     -3.73624982406855
  H   -1.86834914597200      6.30222467027723     -7.10221656629805
  O   -2.06232140021448      5.41734660596874     -6.78860649221859
  H   -1.77051082955009      5.35873135145065     -5.81738472494370
  H   0.84102837826744      2.96734349599599     -7.19263699863660
  O   1.77396373222660      2.65263435713485     -7.21449940882706
  H   1.77009130570731      1.86660371733959     -7.80146517912761
  H   3.51624509919214      2.87144727705092     -6.61599238437887
  O   4.36174228550524      2.62806422959687     -6.20408987544505
  H   4.10955196085111      2.32879930635035     -5.30187884911324
  H   3.71709092292692      7.06616432406540     -1.19486495618931
  O   3.95178285832174      8.01853312776107     -1.33098889829641
  H   4.33369950439954      8.03981470366939     -2.21333278521457
  H   -1.39976903682361      3.73235578242606     -7.11653602394319
  O   -0.85438816587881      2.98840136448631     -6.80308053579709
  H   -1.09139885394144      2.17944811257732     -7.31895340972081
  H   5.36598227204736      6.11734182173295     -3.56768408812861
  O   5.04715073242977      6.98797795558889     -3.85668641966686
  H   5.77330768631863      7.34638382912170     -4.37289133106951
  C   1.53982162809893      6.26001312857028     -5.66654161816866
  O   2.25282369604087      6.28989273737398     -4.43416932827652
  H   0.77014950863745      5.50486795725469     -5.56391038195531
  H   3.08056397273074      6.78142271368266     -4.53564513705314
  H   1.06293942553307      7.22194744932103     -5.86886721108585
  H   2.18123596377335      5.99459159016501     -6.50797014749499
