30
Coordinates from ORCA-job grain_mol_opt.QMRegion
  H   7.68773770733563      0.91068349934789     -6.29282245734586
  O   7.42838963347915      0.12745540161666     -6.79379674867073
  H   6.44320092231729      0.13690296986969     -6.77574124132136
  H   1.85765894169744     -0.20138567008265     -7.47304297788946
  O   1.60053276891756      0.29208111734432     -8.29472678837818
  H   2.07115292568232     -0.16155831095814     -9.00094253132352
  H   4.87959616332666     -1.55589610491702     -9.35295313244249
  O   3.95313744103695     -1.29447552683848     -9.62170480798579
  H   3.86606670085329     -1.56588715276835    -10.53859197017053
  H   6.93708795889737     -1.29324680043802     -8.46567439662851
  O   6.32726168637296     -2.01642201724247     -8.66386063541519
  H   6.08715761180911     -2.35717965504326     -7.77680178121652
  H   0.70164464341479      3.03908649777599     -7.04256450996342
  O   1.63922574539748      2.75207898081520     -7.14628852024473
  H   1.62669964250537      2.00042474767483     -7.77600993326936
  H   3.31441300206894      2.95307110062447     -6.56085284135646
  O   4.19138836891599      2.65680010992917     -6.23916079297474
  H   4.00145599739927      2.36821621307072     -5.31619547432715
  H   4.44257649139758      0.05184429476003     -7.97863615869415
  O   4.71487693785131      0.14354697453157     -7.06023343830123
  H   4.43067808240269      1.04889514425188     -6.80137132717522
  H   6.78054856657859      3.36897242617518     -4.48157163263530
  O   6.86339689966882      2.72571981072382     -5.22295826800288
  H   6.06520471758367      2.89665344574991     -5.74551493033765
  C   6.11115646902992      2.44306287560716     -9.49071219037305
  O   5.58938626260283      3.62509693988761     -8.90290227381965
  H   6.65014594864642      2.74317225574218    -10.38618668296072
  H   5.19781559882683      3.39188655526875     -8.05341036458692
  H   6.80871749205105      1.92071995301343     -8.83253489624001
  H   5.32267924388480      1.74473608883274     -9.79406697581284
