33
Coordinates from ORCA-job grain_mol_opt.QMRegion
  H   -0.13419649852677     -3.46153901586397      3.67867533952314
  O   -0.44552407849943     -2.69500300547681      4.19419566944867
  H   0.24915154436699     -2.54723793492831      4.85693129701795
  H   -2.50953174374681     -3.64467467493631      1.86486969888115
  O   -2.52295740584352     -4.53872135639482      2.27611150881877
  H   -1.58266245280467     -4.81823545748518      2.26982425034817
  H   0.75652702835525     -5.17971766871197      1.93625937528204
  O   0.13126733192129     -5.00949218667831      2.66896518418788
  H   0.09005145520044     -5.79747916278761      3.23648930660688
  H   -2.08703344253205     -8.14023099485871      0.34541936598670
  O   -1.77388123198702     -7.65885851664247      1.14316720539429
  H   -2.57905052882421     -7.36923470606989      1.58630217771063
  H   2.12371355388205     -3.59063894675221      4.18153911910016
  O   2.07181296092316     -4.06020378005710      5.04153407733200
  H   2.59442245451290     -3.50519994153653      5.65147246522058
  H   2.43152116874532     -5.61831356040753      4.74458854860502
  O   2.76351488739633     -6.53138324844723      4.52448577700985
  H   2.01171342138287     -7.03683708706840      4.19245947950555
  H   -2.14269173442563     -3.01817527911293      4.61771332315169
  O   -2.97665301555736     -3.52691540301942      4.70675551119891
  H   -2.93945731082397     -4.10385524859813      3.91075068232405
  H   -0.02505211071463     -8.15747893607615      2.38203432129854
  O   0.77465236978836     -8.18752049974683      2.92503334405002
  H   1.49970493178031     -8.37352900807782      2.29520412474753
  H   -3.75733817196427     -3.66914509797600      7.83120799352942
  O   -3.71529926735845     -2.94751946917572      7.20478644563271
  H   -3.50336874599625     -3.33094127087539      6.32255664156223
  C   -0.89976513970812     -6.10088062511872      5.97208117806544
  O   -0.86588913282492     -6.68925255430710      4.66767531758570
  H   -1.52024049582449     -5.21679807506331      5.89103902126302
  H   -0.34773001067620     -7.50099993619249      4.69349724650541
  H   -1.34098509964112     -6.78231203355318      6.70095331908466
  H   0.09222584071195     -5.79923534398500      6.30665004959480
