24
Coordinates from ORCA-job grain_mol_opt.QMRegion
  H   8.75837321021052     -5.01614484201048     -3.02259352479143
  O   8.06713962337021     -5.46248533181724     -2.47464662399605
  H   7.95850232816778     -6.36834637509911     -2.78800398910920
  H   6.58406566732124     -4.06706440386579     -0.72684730473048
  O   7.19525814611149     -4.48283831368916     -0.07898190430139
  H   7.80430439718108     -4.94395019842207     -0.68760729510168
  H   6.36711858021623     -5.81008303088506      0.65408254817948
  O   6.14339610349568     -6.57316770594106      1.24802977229183
  H   5.23322818555732     -6.38143993072489      1.55278996488176
  H   5.48451664709104     -7.98866383144158      0.13274497744358
  O   5.15484323239258     -8.79180541993190     -0.31005744735864
  H   4.38439469292322     -8.45987442166163     -0.82080809087926
  H   6.77480036466678     -5.79239524861338      2.72578860513167
  O   6.82210561919639     -5.15125644029701      3.45705359278488
  H   7.68670625311043     -5.25411370528165      3.90297619040655
  H   6.50551606386456     -8.66758024567294     -1.64089048525150
  O   7.27665418909305     -8.30963699685387     -2.12902206804714
  H   7.88565893721297     -8.11859087387414     -1.39270897189051
  C   9.20640900567996     -8.87390638497893      1.09163343457334
  O   8.57395338853557     -7.80872528712714      0.38938375295971
  H   10.14341389053700     -9.08691981980223      0.58520198694143
  H   7.76134945729223     -7.57409861833975      0.86366924266428
  H   9.43032339267052     -8.59560424969905      2.12378660765086
  H   8.59721298582346     -9.78096973139159      1.09218726181974
