39
Coordinates from ORCA-job grain_mol_opt.QMRegion
  H   0.17863851298949      5.65985602266751     -0.72024142730738
  O   0.67863665171591      6.36183939045915     -1.20385627576633
  H   0.83970695964911      7.11632806741132     -0.58972101918507
  H   -0.45045647894981      6.93302565713642     -2.20930151925356
  O   -1.16186571173749      7.35479872818653     -2.76194757786131
  H   -1.96605889740394      7.23081997765653     -2.20398793265669
  H   -0.98111838742707      4.52613857704566     -4.01872658747416
  O   -1.63551294785864      5.19276581656995     -4.28991652756700
  H   -1.43604910798523      5.99459843322076     -3.76168944250513
  H   0.67866932396997      3.15955460844798     -2.70339036285693
  O   0.56551181077381      3.51949120889397     -3.60885379067461
  H   0.69728772904970      2.74603123375376     -4.17480153176190
  H   -0.57639121594122      8.90170317496784     -2.16811794078867
  O   -0.44126675715384      9.77383417802191     -1.73407941750155
  H   0.23078870223139      9.60925649841739     -1.05117930067480
  H   2.27011884372571      5.81557699467843     -1.17347437590846
  O   3.21529143827584      5.56441046197802     -1.08464738753481
  H   3.38743381664652      4.93690659205060     -1.82348726500635
  H   3.45630388002369      3.41238758495860     -3.57249487952645
  O   3.66721953903667      4.35024289268232     -3.36475842461428
  H   3.23265817903496      4.91551183843134     -4.03333190275999
  H   -1.80681304057792      6.24576491160347     -7.23492215826038
  O   -2.06861842057054      5.41437541083446     -6.83823910520012
  H   -1.78057431439250      5.43773357863955     -5.87950392214902
  H   1.96046227589722      8.31238523203867      0.69582350067743
  O   1.61976618477422      8.66913692130345     -0.15996327678755
  H   2.42019529542343      8.69467308951128     -0.71803694152312
  H   3.85884506390629      7.12534766813313     -1.34891093062273
  O   4.08189502948942      8.08091795254795     -1.47631327449405
  H   4.75077850833720      8.05188095572231     -2.17560707935944
  H   6.42263525918488      7.17639857223799     -4.18047150730562
  O   5.84470797063595      6.89210918741619     -3.46889339125338
  H   6.10137401834963      5.96532865945518     -3.30141051256061
  C   1.69448950472796      7.29411405901421     -4.46759188172670
  O   1.87594180276871      5.92181309275780     -4.82637985545040
  H   2.40545190772917      7.87438605265891     -5.04730791006282
  H   1.22997406318226      5.37942975921687     -4.34998098988776
  H   0.68618559359465      7.63312471872616     -4.70485002563388
  H   1.89060269561324      7.46925347569545     -3.41060935327950
