30
Coordinates from ORCA-job grain_mol_opt.QMRegion
  H   3.50362527229802     -5.13224520584446     -5.32927757602107
  O   4.29466781151095     -4.76855389141995     -4.87904268948563
  H   4.66236490508114     -5.47405793650088     -4.30050156124751
  H   4.71474406685506     -6.39104584339116     -2.30638351689845
  O   5.05020865301929     -6.65562923657601     -3.19525037470613
  H   5.83120034415464     -7.21804993497483     -3.04120242317506
  H   8.72032773984088     -5.08290805031911     -2.95818118648957
  O   8.03872860279661     -5.53022805834752     -2.41727044902118
  H   8.08375180469398     -6.48084402537760     -2.57397289105693
  H   5.04165319665296     -2.09725121935499     -5.71422749809684
  O   5.40507033529245     -2.85770476072266     -6.23806851078833
  H   5.09425042889980     -3.66161881652957     -5.73857262131679
  H   7.96811774080845     -1.37660657568983     -6.09624594016471
  O   8.00569128033649     -2.26228747686840     -5.66840616611989
  H   7.10418350877145     -2.62118306441168     -5.85230861168154
  H   6.70643105973912     -2.79061186887261     -2.73935987065347
  O   6.17662605473252     -3.53246348655775     -2.38058145599158
  H   6.62972005324893     -4.34843817652023     -2.64749463069916
  H   6.55288212378713     -8.57216380092270     -1.63041573499750
  O   7.13659848032018     -8.26359437332244     -2.37389158810969
  H   7.39757586257780     -9.05829427384900     -2.84578859332564
  H   9.98762562782406     -3.32700410473624     -3.21962756349865
  O   9.70812202836509     -3.94592135419356     -3.92609621258152
  H   9.26989801078207     -3.37559094892022     -4.58172734472135
  C   7.71675506029931     -6.11168927178468     -5.84581483436177
  O   8.86821747568863     -6.68298074058911     -5.23406552614030
  H   7.02966347743132     -6.92643648285776     -6.06087901452800
  H   9.48007983336959     -5.96230467913597     -5.03880506834072
  H   7.21471468478278     -5.40784553270966     -5.18112494454573
  H   7.95386884086816     -5.60720946926133     -6.78573780298967
