33
Coordinates from ORCA-job grain_mol_opt.QMRegion
  H   7.83639061958346     -1.75736840642908     -4.06774090477001
  O   7.67897099063865     -1.39592962750613     -3.16169469983474
  H   7.21255466093918     -0.53444212551126     -3.30727869757370
  H   8.16333590403408     -1.49204644136093     -6.07495395329532
  O   8.12151836172284     -2.34952393733459     -5.61510997892871
  H   7.21684366132977     -2.65628900242124     -5.85869196038966
  H   7.66346426780798      1.01345068855401     -6.68397992478803
  O   7.41429274972081      0.10204602108005     -6.86644964619043
  H   6.42491317140493      0.10702839647250     -6.81713634699557
  H   9.15281950920256      0.53694024892299     -1.10538687089690
  O   8.51811466005893      0.55068293407654     -0.37467946603505
  H   8.47770854284213     -0.35649788904420     -0.03007453225697
  H   5.86246470866675      2.07560259369373     -0.47718229072770
  O   6.47859145913559      2.15471073503733     -1.21839626764746
  H   7.25392246797362      1.63084199146493     -0.91294418772426
  H   6.41522888218915      1.45085384301143     -4.21570914714737
  O   6.21940730410707      0.77791191298092     -3.53421706825126
  H   6.11676524096466      1.26268008481682     -2.68347772877822
  H   9.62033919504829     -2.21045492642273     -0.87007328738089
  O   9.91487560161501     -2.05892351074980     -1.78049208260297
  H   9.12026855458442     -1.68103748673981     -2.22023899165786
  H   9.99052667225942     -3.43850788316029     -2.99839706847213
  O   9.86631082987433     -4.10252270059475     -3.70999467984218
  H   9.40376810868110     -3.63041665975200     -4.41500598722359
  H   6.75286589671106      3.47880726520732     -4.53543687465229
  O   6.86316749123958      2.83404793503407     -5.26913375702643
  H   6.04488915263998      2.94791989372671     -5.78409245536605
  C   10.27528940927487      0.77469420112264     -4.04585400294035
  O   9.66905772818661      1.40588704456825     -2.91983592337624
  H   10.74497414213717     -0.13206748930444     -3.68005238436767
  H   9.21583473194195      2.19840344452782     -3.22418727260334
  H   9.53598073976503      0.51024513785339     -4.80400257668783
  H   11.03907613043108      1.40753294174193     -4.50189888609218
