15
Coordinates from ORCA-job grain_mol_opt.QMRegion
  H   -7.19567113330005      1.69360748919694     -5.30658890891545
  O   -7.79549641852568      0.94440366430317     -5.13415255603184
  H   -8.67835032335751      1.34664237712696     -5.03626971504544
  H   -10.11169747127818      3.08736350160126     -5.03502056213916
  O   -10.17894721771457      2.19358309182527     -4.66839093114062
  H   -10.32287547165643      2.38160533436156     -3.70942165217219
  H   -9.04294629946421     -3.02769953111481     -4.04990549401347
  O   -9.73110820433244     -2.41075906393514     -3.73631491759918
  H   -9.90842261931711     -1.77479309228406     -4.44834411231648
  C   -12.30347901576494     -0.70686767460401     -5.55513121480157
  O   -10.90533208111078     -0.45314258482582     -5.55591548383414
  H   -12.44826734786437     -1.75154617447908     -5.81745270670614
  H   -10.77796206388597      0.47170812636803     -5.28814267668956
  H   -12.75140413220871     -0.53193568585432     -4.57366336004907
  H   -12.82592544726050     -0.09024769231888     -6.29191772099122
