30
Coordinates from ORCA-job grain_mol_opt.QMRegion
  H   -2.19256948596303     -7.92024636534093      0.57163658420171
  O   -1.81300425899623     -7.45264860642644      1.35108736349787
  H   -2.56751189873144     -7.07131488701897      1.81376365056277
  H   0.08869181680623     -7.01741878626988     -1.20526118951785
  O   0.55287832824135     -7.47411110238329     -0.46084208390641
  H   -0.12998818392969     -7.54319403971967      0.21221157108602
  H   2.35418082665565     -8.08867386414672     -0.89865359210581
  O   3.01535375279404     -8.06971957677576     -1.60894440122419
  H   2.77751820879128     -8.78734035160845     -2.21395111995997
  H   -2.41483940091385     -9.65322825183708     -0.68568988599400
  O   -2.60665798659349     -8.72971330889632     -0.93845260616294
  H   -3.56292086076108     -8.57501777991081     -0.70555608939952
  H   -0.17928330318211     -7.95049180128198      2.54848489522001
  O   0.65543486625629     -7.80824199803210      3.01468471953891
  H   1.36272684630687     -8.10678917800712      2.41605315239367
  H   -2.30310858910445     -8.66096790475516     -2.75243405191604
  O   -2.04929649432639     -8.39369786369208     -3.65814163635256
  H   -1.40366704018773     -9.01795203085313     -4.01040421266367
  H   2.40590914384828    -10.75178643229818     -3.88394299446951
  O   2.16163293564615     -9.87370429555693     -3.58552372173934
  H   1.35306610144892     -9.62940689396470     -4.09686923730007
  H   3.69115018133387     -8.91995655498843      1.13789919887699
  O   2.97079528215073     -8.32557072041963      1.36933023114524
  H   3.42695906947734     -7.50494525467018      1.65780447812767
  C   -0.24575260804050    -10.82957496294863      0.43407854945092
  O   -1.45958575366906    -11.17188988582860     -0.25258517679053
  H   0.22888111674907    -10.05551314724548     -0.15780064357917
  H   -1.93894154634844    -11.81939063991501      0.27241400548462
  H   -0.44434691007434    -10.44804974761616      1.43608000944229
  H   0.42349872449129    -11.68757611504053      0.50107213293788
