24
Coordinates from ORCA-job grain_mol_opt.QMRegion
  H   3.81769725735709     -1.11661578813870      7.08452983763106
  O   3.83473294742527     -0.14624362825157      7.10482985999677
  H   4.55744544544855      0.11001382775572      6.51957103828942
  H   6.48113361677003      1.17968453441396      4.59070787766668
  O   6.10331497167978      1.73833389986175      5.29388517621642
  H   6.26066199035284      2.65236387295630      4.95045020887383
  H   1.76811879789127      2.19102058759423      8.53078644784841
  O   2.50342556876403      2.20112674533599      7.89711946908774
  H   2.74608463382013      1.26711683687779      7.76409975369011
  H   4.40592075220202      2.04895254164934      5.11081143900317
  O   3.45099418771406      2.25558373289462      5.01072569849511
  H   3.05234863129982      2.22278510832774      5.88921410339601
  H   4.09875540623794      4.80962666365332      6.24203784570701
  O   4.12616877236243      5.52715596324022      5.59825686846486
  H   3.52506126241350      5.19847339954930      4.87722772603069
  H   5.35921508937374      3.79620147244023      3.44780451552260
  O   6.05680429026815      4.12136412553056      4.04735286519525
  H   5.58817347015792      4.79124309552067      4.57691788271832
  C   5.92037482650686      3.16962487445067      8.43546407502071
  O   6.24026086533788      3.79966081051261      9.67307220288331
  H   4.85973732130318      2.94201606758604      8.46998905516922
  H   7.18578066745423      3.97503874069936      9.67751107003453
  H   6.12295067733706      3.81904832130918      7.57740833520016
  H   6.46380840318923      2.23472317564931      8.28347921548394
