24
Coordinates from ORCA-job grain_mol_opt.QMRegion
  H   4.89790904776093     -6.28631344475125     -2.36085784429700
  O   5.20111415857425     -6.62244011477435     -3.23496263085224
  H   6.07085715074664     -7.03537070392646     -3.10117529873824
  H   5.80945047951275     -7.94616857224156      0.21056810986165
  O   5.49134344989367     -8.63980393859454     -0.41392953585727
  H   4.67045058054113     -8.28378118259577     -0.81087109904691
  H   2.20073444735211     -8.02429051939265     -0.93305836945802
  O   2.93805943873092     -8.04464518833825     -1.57126119039966
  H   2.67470585876912     -8.71749942900012     -2.22643873181678
  H   6.86418670284210     -8.25649424703655     -1.65534451986379
  O   7.40175428887359     -8.14517605551760     -2.46353465652242
  H   7.44903645759896     -9.04924868108965     -2.80120861693400
  H   2.03981612317781    -10.77874159733334     -3.41845907981858
  O   2.11122001252113     -9.83253286046332     -3.56089795182376
  H   1.30919893354867     -9.58345554698209     -4.08126734663331
  H   4.11000580040103     -7.39792591419968     -4.39716675030496
  O   3.40005676369640     -7.59330231083624     -5.04772322787805
  H   3.11408165116447     -8.48054715260217     -4.81279350792747
  C   5.31381815460766    -11.37849258008775     -2.71636436323893
  O   6.43909331672726    -10.86936525285207     -2.01794731832545
  H   5.68126062648837    -12.07263754121695     -3.46826365917141
  H   6.11002501089961    -10.29569725124405     -1.30609364324086
  H   4.63661805377587    -11.92699202302356     -2.05387382421020
  H   4.75129202703165    -10.58924490647707     -3.22185990568201
